20
s                      x[A]                      y[A]                      z[A]                      q[e]
N       -1.9525889912210721        1.4424113843824675        0.0454134745225882        0.0668590787869445 
O       -1.6052796601751724       -0.0978534750184552        0.3121947439689888       -0.3453817832961822 
N       -1.4631151562102855        0.1378133854859205       -0.1856660552625868        0.9999999983607315 
N       -2.9942357993871647       -0.7145549251658787        0.0105678643772237        0.1069203014538864 
O       -1.5004236946313869        0.0321839113546178       -0.3367274986817849       -0.8269006815228387 
O       -1.0123744163166239       -0.7197130740440233        0.3707209770442579       -0.4077891946447376 
O       -1.1683041698464014       -0.6005660855438356       -0.4094064018752959       -0.4525710291176330 
N       -1.0223750196967984       -0.8782783865802588       -0.0896129222109116        0.9999999981691240 
N       -0.7196248658518924       -2.0941291223945955       -0.1511199492314505        0.0983666336427648 
O       -0.7941301132183514       -1.4833523924578826       -0.2725184793724477       -0.2543246036697663 
N        0.6413305967654693        0.4045904781788051       -0.0221617707709812        0.9998456591158325 
O        0.5173265738838064        1.0445403874044263       -0.0061342650701289       -0.7183711251380944 
O        0.7678789878720496       -0.3730770497119879        0.3977991145550115       -0.5023100281727039 
N        0.6054677880401641       -0.3446025122639102        0.0487228218873265        0.9999999985797019 
O        0.7489980890495874       -0.2751251750028642       -0.2880720293443222       -0.6221112654164173 
N        2.8157823103058957        0.0984038785436022       -0.0000209405773405        0.1058143397228551 
O        1.4323301201111656       -0.6875127325201031       -0.3218290296077577       -0.5786862295991733 
N        1.4519687782414197       -0.8139038809705814        0.0304418050938067        0.9999968608624443 
O        1.4411652785080040       -0.6930743515349493        0.2947925461167528       -0.7310740550407896 
N        1.7942165284342793       -2.1377044310260027        0.0004663585800823        0.0617171269240517 

        RMSE         1.746051400e-01 kcal/mol
         MAE         1.078084278e-01 kcal/mol
     max. AE         2.316771669e+00 kcal/mol

Coordinates in bohr
s                   x[bohr]                   y[bohr]                   z[bohr]                      q[e]
+       -3.6898581617647173        2.7257622793200529        0.0858190230379589        0.0668590787869445 
-       -3.0335386928039996       -0.1849162548171957        0.5899625211825212       -0.3453817832961822 
+       -2.7648867350051254        0.2604295361296940       -0.3508579698305541        0.9999999983607315 
+       -5.6582852060984212       -1.3503130123680891        0.0199703679576398        0.1069203014538864 
-       -2.8353896496561619        0.0608187737016199       -0.6363227053352412       -0.8269006815228387 
-       -1.9131102447072801       -1.3600605003561870        0.7005610648397181       -0.4077891946447376 
-       -2.2077747523484930       -1.1349053397239568       -0.7736659175229624       -0.4525710291176330 
+       -1.9320086448164768       -1.6597054923463925       -0.1693438680163498        0.9999999981691240 
+       -1.3598938110431098       -3.9573302260731773       -0.2855752954585846        0.0983666336427648 
-       -1.5006883132785789       -2.8031295662796474       -0.5149852528438674       -0.2543246036697663 
+        1.2119390959920544        0.7645651413545892       -0.0418796741793190        0.9998456591158325 
-        0.9776054712616270        1.9738951162204565       -0.0115920801239838       -0.7183711251380944 
-        1.4510808794816763       -0.7050133965909576        0.7517313250166737       -0.5023100281727039 
+        1.1441682143196543       -0.6512043231619613        0.0920727827584098        0.9999999985797019 
-        1.4154011542887424       -0.5199111933210355       -0.5443772004407075       -0.6221112654164173 
+        5.3210570100252008        0.1859563666628830       -0.0000395719532166        0.1058143397228551 
-        2.7067114522286291       -1.2992106781366393       -0.6081686811356987       -0.5786862295991733 
+        2.7438231348786011       -1.5380553160925086        0.0575266702256624        0.9999968608624443 
-        2.7234074806645321       -1.3097206141276860        0.5570771356423918       -0.7310740550407896 
+        3.3905776029579284       -4.0396756192552132        0.0008812899287881        0.0617171269240517 

total molecule built from fragment files: /home/boittier/pydcm/models/fbutadiene-0/3-fragfit/frag1/fit1/5charges.xyz /home/boittier/pydcm/models/fbutadiene-0/3-fragfit/frag2/fit1/5charges.xyz /home/boittier/pydcm/models/fbutadiene-0/3-fragfit/frag3/fit2/5charges.xyz /home/boittier/pydcm/models/fbutadiene-0/3-fragfit/frag4/fit2/5charges.xyz 