23
s                      x[A]                      y[A]                      z[A]                      q[e]
N       -1.9525889912210721        1.4424113843824675        0.0454134745225882        0.0668590787869445 
O       -1.6052796601751724       -0.0978534750184552        0.3121947439689888       -0.3453817832961822 
N       -1.4631151562102855        0.1378133854859205       -0.1856660552625868        0.9999999983607315 
N       -2.9942357993871647       -0.7145549251658787        0.0105678643772237        0.1069203014538864 
O       -1.5004236946313869        0.0321839113546178       -0.3367274986817849       -0.8269006815228387 
O       -1.0123744163166239       -0.7197130740440233        0.3707209770442579       -0.4077891946447376 
O       -1.1683041698464014       -0.6005660855438356       -0.4094064018752959       -0.4525710291176330 
N       -1.0223750196967984       -0.8782783865802588       -0.0896129222109116        0.9999999981691240 
N       -0.7196248658518924       -2.0941291223945955       -0.1511199492314505        0.0983666336427648 
O       -0.7941301132183514       -1.4833523924578826       -0.2725184793724477       -0.2543246036697663 
N        0.7278000457178432        0.8925466574722986       -0.0858008829241725        0.9999999948381415 
O        0.7207229810635347        1.0015267749110077       -0.0985765898933123       -0.8239917816950386 
N        0.5067577902602907        1.7842839868538556       -0.0064357663523595        0.3004230678793490 
O        0.5004030534044930        1.3889161109976043        0.0024301336665247       -0.8801993993792271 
N        0.5474778533313382       -0.3978629299761535       -0.0825647995022968        0.8953032486864562 
O        0.6532205620211313       -0.2221524144848272       -0.2433081521730100       -0.9999870909131459 
O        0.7763592994844851       -0.2569833075567546        0.4111232390192026       -0.3344776276935139 
N        0.5991845443125325        0.3369648195793868       -0.0132347919566831        0.9999828272452976 
N        2.8157823103058957        0.0984038785436022       -0.0000209405773405        0.1058143397228551 
O        1.4323301201111656       -0.6875127325201031       -0.3218290296077577       -0.5786862295991733 
N        1.4519687782414197       -0.8139038809705814        0.0304418050938067        0.9999968608624443 
O        1.4411652785080040       -0.6930743515349493        0.2947925461167528       -0.7310740550407896 
N        1.7942165284342793       -2.1377044310260027        0.0004663585800823        0.0617171269240517 

        RMSE         1.267112828e-01 kcal/mol
         MAE         7.933272249e-02 kcal/mol
     max. AE         2.053319403e+00 kcal/mol

Coordinates in bohr
s                   x[bohr]                   y[bohr]                   z[bohr]                      q[e]
+       -3.6898581617647173        2.7257622793200529        0.0858190230379589        0.0668590787869445 
-       -3.0335386928039996       -0.1849162548171957        0.5899625211825212       -0.3453817832961822 
+       -2.7648867350051254        0.2604295361296940       -0.3508579698305541        0.9999999983607315 
+       -5.6582852060984212       -1.3503130123680891        0.0199703679576398        0.1069203014538864 
-       -2.8353896496561619        0.0608187737016199       -0.6363227053352412       -0.8269006815228387 
-       -1.9131102447072801       -1.3600605003561870        0.7005610648397181       -0.4077891946447376 
-       -2.2077747523484930       -1.1349053397239568       -0.7736659175229624       -0.4525710291176330 
+       -1.9320086448164768       -1.6597054923463925       -0.1693438680163498        0.9999999981691240 
+       -1.3598938110431098       -3.9573302260731773       -0.2855752954585846        0.0983666336427648 
-       -1.5006883132785789       -2.8031295662796474       -0.5149852528438674       -0.2543246036697663 
+        1.3753426608972763        1.6866686146634648       -0.1621401583066347        0.9999999948381415 
-        1.3619689478970272        1.8926111748280736       -0.1862827437889564       -0.8239917816950386 
+        0.9576333661803792        3.3718078210005515       -0.0121618349326112        0.3004230678793490 
-        0.9456246547932641        2.6246708709374151        0.0045922867454035       -0.8801993993792271 
+        1.0345831276231690       -0.7518519186764793       -0.1560248473630386        0.8953032486864562 
-        1.2344078723392300       -0.4198071910822170       -0.4597857383995805       -0.9999870909131459 
-        1.4671063447271220       -0.4856280349263859        0.7769102692919967       -0.3344776276935139 
+        1.1322946053548411        0.6367711768030773       -0.0250101303142583        0.9999828272452976 
+        5.3210570100252008        0.1859563666628830       -0.0000395719532166        0.1058143397228551 
-        2.7067114522286291       -1.2992106781366393       -0.6081686811356987       -0.5786862295991733 
+        2.7438231348786011       -1.5380553160925086        0.0575266702256624        0.9999968608624443 
-        2.7234074806645321       -1.3097206141276860        0.5570771356423918       -0.7310740550407896 
+        3.3905776029579284       -4.0396756192552132        0.0008812899287881        0.0617171269240517 

total molecule built from fragment files: /home/boittier/pydcm/models/fbutadiene-0/3-fragfit/frag1/fit1/5charges.xyz /home/boittier/pydcm/models/fbutadiene-0/3-fragfit/frag2/fit1/5charges.xyz /home/boittier/pydcm/models/fbutadiene-0/3-fragfit/frag3/fit2/8charges.xyz /home/boittier/pydcm/models/fbutadiene-0/3-fragfit/frag4/fit2/5charges.xyz 