25
s                      x[A]                      y[A]                      z[A]                      q[e]
N       -1.9469818164204398        1.4436891276778316        0.0293899786428849        0.0701454184658970 
N       -3.2491326426503169       -0.7460881392499306       -0.0414448515302503        0.0616074248163141 
O       -1.5077880490758346       -0.0994121738857561       -0.3468274051580475       -0.5239063843436584 
N       -1.9777246926457261       -0.4556490295159257        0.1590931860059089        0.2509854918892993 
N       -1.4430057409331594        0.0538214135066108       -0.0720916560756093        0.8281244030771444 
O       -1.6336664491896524       -0.1867394205274945        0.2513789062535546       -0.6854594401224549 
O       -1.0619971398122257       -0.5717623084586300        0.3991417661839165       -0.3495191407391372 
O       -1.1781871938390622       -0.5547044421498556       -0.3389132746742998       -0.6392056175056032 
N       -1.0911621031901384       -0.6935948393531517       -0.0948635171832913        0.9996550612373086 
N       -0.7122107382011477       -1.9078933482922869        0.0630417044854800        0.2606941621717392 
O       -0.7078375852515627       -1.5794648682457730       -0.3449090555234357       -0.1236190486061309 
O       -0.7039543560173803       -1.8209493020857916        0.2571424508321986       -0.1643236121784245 
N        0.7278000457178432        0.8925466574722986       -0.0858008829241725        0.9999999948381415 
O        0.7207229810635347        1.0015267749110077       -0.0985765898933123       -0.8239917816950386 
N        0.5067577902602907        1.7842839868538556       -0.0064357663523595        0.3004230678793490 
O        0.5004030534044930        1.3889161109976043        0.0024301336665247       -0.8801993993792271 
N        0.5474778533313382       -0.3978629299761535       -0.0825647995022968        0.8953032486864562 
O        0.6532205620211313       -0.2221524144848272       -0.2433081521730100       -0.9999870909131459 
O        0.7763592994844851       -0.2569833075567546        0.4111232390192026       -0.3344776276935139 
N        0.5991845443125325        0.3369648195793868       -0.0132347919566831        0.9999828272452976 
N        2.8157823103058957        0.0984038785436022       -0.0000209405773405        0.1058143397228551 
O        1.4323301201111656       -0.6875127325201031       -0.3218290296077577       -0.5786862295991733 
N        1.4519687782414197       -0.8139038809705814        0.0304418050938067        0.9999968608624443 
O        1.4411652785080040       -0.6930743515349493        0.2947925461167528       -0.7310740550407896 
N        1.7942165284342793       -2.1377044310260027        0.0004663585800823        0.0617171269240517 

        RMSE         1.100367323e-01 kcal/mol
         MAE         6.949292699e-02 kcal/mol
     max. AE         1.731326846e+00 kcal/mol

Coordinates in bohr
s                   x[bohr]                   y[bohr]                   z[bohr]                      q[e]
+       -3.6792621378213393        2.7281768640320618        0.0555390064458586        0.0701454184658970 
+       -6.1399703952249007       -1.4099021465268096       -0.0783194130303825        0.0616074248163141 
-       -2.8493062616390969       -0.1878617685751355       -0.6554087610858640       -0.5239063843436584 
+       -3.7373577499885760       -0.8610518127566132        0.3006425282045399        0.2509854918892993 
+       -2.7268854503403901        0.1017077238466295       -0.1362334760472920        0.8281244030771444 
-       -3.0871819457375675       -0.3528863360669107        0.4750372521331852       -0.6854594401224549 
-       -2.0068835949220305       -1.0804740935962027        0.7542685686934516       -0.3495191407391372 
-       -2.2264509596333815       -1.0482394003224473       -0.6404532230335546       -0.6392056175056032 
+       -2.0619973841738393       -1.3107041934844927       -0.1792660537912682        0.9996550612373086 
+       -1.3458831413386996       -3.6053956437450059        0.1191315473318527        0.2606941621717392 
-       -1.3376190805577461       -2.9847558096047120       -0.6517836059261168       -0.1236190486061309 
-       -1.3302808413542204       -3.4410952200745526        0.4859287721099034       -0.1643236121784245 
+        1.3753426608972763        1.6866686146634648       -0.1621401583066347        0.9999999948381415 
-        1.3619689478970272        1.8926111748280736       -0.1862827437889564       -0.8239917816950386 
+        0.9576333661803792        3.3718078210005515       -0.0121618349326112        0.3004230678793490 
-        0.9456246547932641        2.6246708709374151        0.0045922867454035       -0.8801993993792271 
+        1.0345831276231690       -0.7518519186764793       -0.1560248473630386        0.8953032486864562 
-        1.2344078723392300       -0.4198071910822170       -0.4597857383995805       -0.9999870909131459 
-        1.4671063447271220       -0.4856280349263859        0.7769102692919967       -0.3344776276935139 
+        1.1322946053548411        0.6367711768030773       -0.0250101303142583        0.9999828272452976 
+        5.3210570100252008        0.1859563666628830       -0.0000395719532166        0.1058143397228551 
-        2.7067114522286291       -1.2992106781366393       -0.6081686811356987       -0.5786862295991733 
+        2.7438231348786011       -1.5380553160925086        0.0575266702256624        0.9999968608624443 
-        2.7234074806645321       -1.3097206141276860        0.5570771356423918       -0.7310740550407896 
+        3.3905776029579284       -4.0396756192552132        0.0008812899287881        0.0617171269240517 

total molecule built from fragment files: /home/boittier/pydcm/models/fbutadiene-0/3-fragfit/frag1/fit1/6charges.xyz /home/boittier/pydcm/models/fbutadiene-0/3-fragfit/frag2/fit1/6charges.xyz /home/boittier/pydcm/models/fbutadiene-0/3-fragfit/frag3/fit2/8charges.xyz /home/boittier/pydcm/models/fbutadiene-0/3-fragfit/frag4/fit2/5charges.xyz 