28
s                      x[A]                      y[A]                      z[A]                      q[e]
N       -1.9469818164204398        1.4436891276778316        0.0293899786428849        0.0701454184658970 
N       -3.2491326426503169       -0.7460881392499306       -0.0414448515302503        0.0616074248163141 
O       -1.5077880490758346       -0.0994121738857561       -0.3468274051580475       -0.5239063843436584 
N       -1.9777246926457261       -0.4556490295159257        0.1590931860059089        0.2509854918892993 
N       -1.4430057409331594        0.0538214135066108       -0.0720916560756093        0.8281244030771444 
O       -1.6336664491896524       -0.1867394205274945        0.2513789062535546       -0.6854594401224549 
O       -1.0130460295622026       -0.4745446946024920        0.3222680558500247       -0.4362508051280906 
O       -1.1245806892425658       -0.4045277227602681       -0.3151150113657006       -0.6490082674690112 
N       -1.0369000346476862       -0.4507345032779700       -0.0850519565119937        0.9216344341715355 
O       -0.9142098824768425       -1.5385348192287009        0.1553720990809715       -0.5822213627175898 
N       -0.9534686219068276       -1.4234149400092122        0.0198464489320443        0.9996059131104533 
N       -0.7644016908328640       -1.9390017037513954       -0.0269790624365820        0.2040917441352131 
O       -0.8700175068444449       -1.5350222762255474       -0.1885371849657168       -0.4741698517227583 
N        0.7278000457178432        0.8925466574722986       -0.0858008829241725        0.9999999948381415 
O        0.7207229810635347        1.0015267749110077       -0.0985765898933123       -0.8239917816950386 
N        0.5067577902602907        1.7842839868538556       -0.0064357663523595        0.3004230678793490 
O        0.5004030534044930        1.3889161109976043        0.0024301336665247       -0.8801993993792271 
N        0.5474778533313382       -0.3978629299761535       -0.0825647995022968        0.8953032486864562 
O        0.6532205620211313       -0.2221524144848272       -0.2433081521730100       -0.9999870909131459 
O        0.7763592994844851       -0.2569833075567546        0.4111232390192026       -0.3344776276935139 
N        0.5991845443125325        0.3369648195793868       -0.0132347919566831        0.9999828272452976 
N        2.6872885655325716       -0.0492802886553632       -0.1721613319260747        0.8427994806817060 
O        2.5862210897433067       -0.1011863739872031       -0.2021069466960129       -0.9999999981943856 
N        1.9583981055057100       -0.3689708332243121       -0.1776453039215982        0.8161218998081532 
O        1.5817804904527148       -0.5299510079949507       -0.3447399378083071       -0.6963015746314082 
N        1.3711153011512651       -0.8469098628666410        0.0410111305458408        0.4512148656881398 
O        1.5016406637024908       -0.5950732083404066        0.2730517674109385       -0.6258737491506617 
N        1.7883759906279708       -2.1376182432558593        0.0208299501367914        0.0698071186678447 

        RMSE         9.478896868e-02 kcal/mol
         MAE         5.862912006e-02 kcal/mol
     max. AE         1.731326846e+00 kcal/mol

Coordinates in bohr
s                   x[bohr]                   y[bohr]                   z[bohr]                      q[e]
+       -3.6792621378213393        2.7281768640320618        0.0555390064458586        0.0701454184658970 
+       -6.1399703952249007       -1.4099021465268096       -0.0783194130303825        0.0616074248163141 
-       -2.8493062616390969       -0.1878617685751355       -0.6554087610858640       -0.5239063843436584 
+       -3.7373577499885760       -0.8610518127566132        0.3006425282045399        0.2509854918892993 
+       -2.7268854503403901        0.1017077238466295       -0.1362334760472920        0.8281244030771444 
-       -3.0871819457375675       -0.3528863360669107        0.4750372521331852       -0.6854594401224549 
-       -1.9143794097117381       -0.8967594421425792        0.6089983204353879       -0.4362508051280906 
-       -2.1251493547393769       -0.7644465508092544       -0.5954810263757487       -0.6490082674690112 
+       -1.9594569430539730       -0.8517647048030917       -0.1607248926019915        0.9216344341715355 
-       -1.7276061739514410       -2.9074092322624789        0.2936106935366460       -0.5822213627175898 
+       -1.8017944341319594       -2.6898642046969181        0.0375043503283068        0.9996059131104533 
+       -1.4445097408966454       -3.6641819115186900       -0.0509830354344710        0.2040917441352131 
-       -1.6440946932209259       -2.9007714884633446       -0.3562836182472002       -0.4741698517227583 
+        1.3753426608972763        1.6866686146634648       -0.1621401583066347        0.9999999948381415 
-        1.3619689478970272        1.8926111748280736       -0.1862827437889564       -0.8239917816950386 
+        0.9576333661803792        3.3718078210005515       -0.0121618349326112        0.3004230678793490 
-        0.9456246547932641        2.6246708709374151        0.0045922867454035       -0.8801993993792271 
+        1.0345831276231690       -0.7518519186764793       -0.1560248473630386        0.8953032486864562 
-        1.2344078723392300       -0.4198071910822170       -0.4597857383995805       -0.9999870909131459 
-        1.4671063447271220       -0.4856280349263859        0.7769102692919967       -0.3344776276935139 
+        1.1322946053548411        0.6367711768030773       -0.0250101303142583        0.9999828272452976 
+        5.0782390411545144       -0.0931262421977496       -0.3253377431726942        0.8427994806817060 
-        4.8872492055533394       -0.1912145206158167       -0.3819267496480505       -0.9999999981943856 
+        3.7008357959991449       -0.6972537725793789       -0.3357009475733896        0.8161218998081532 
-        2.9891317010689495       -1.0014621924928246       -0.6514640197847056       -0.6963015746314082 
+        2.5910322179526610       -1.6004275778607537        0.0774997992143427        0.4512148656881398 
-        2.8376893877371496       -1.1245253069204486        0.5159930211096130       -0.6258737491506617 
+        3.3795405868779462       -4.0395127479860742        0.0393628981147368        0.0698071186678447 

total molecule built from fragment files: /home/boittier/pydcm/models/fbutadiene-0/3-fragfit/frag1/fit1/6charges.xyz /home/boittier/pydcm/models/fbutadiene-0/3-fragfit/frag2/fit1/7charges.xyz /home/boittier/pydcm/models/fbutadiene-0/3-fragfit/frag3/fit2/8charges.xyz /home/boittier/pydcm/models/fbutadiene-0/3-fragfit/frag4/fit2/7charges.xyz 