31
s                      x[A]                      y[A]                      z[A]                      q[e]
O       -1.7595088939870687        1.1089172487233194       -0.3093994504858243       -0.9174940035338179 
N       -1.8972126008701693        1.3690586047126885       -0.2100482757555096        0.1914746168227119 
N       -1.7193388168886712        1.0427821320483224       -0.2915400240444269        0.8489613803586482 
N       -3.0023379367117764       -0.7545121011596519        0.0319329842148230        0.4271299014182385 
N       -2.5757598842054144       -0.7871671550344319        0.0554081712662793        0.5737992507302988 
O       -2.7516607662241630       -0.7396410471074156        0.0458388045223276       -0.9693337248541827 
O       -1.6908688279657600       -0.1645514484449418        0.2130013566195658       -0.6033282222873704 
N       -1.4059344338688371        0.0194659057055838       -0.1444033135870040        0.9434898024377052 
N       -2.2083838693491051       -0.2478145990891098        0.0625643347342284        0.3169344228237564 
O       -1.4673683354386127       -0.0679337979566962       -0.2927906532851168       -0.8101365101334467 
O       -1.0619971398122257       -0.5717623084586300        0.3991417661839165       -0.3495191407391372 
O       -1.1781871938390622       -0.5547044421498556       -0.3389132746742998       -0.6392056175056032 
N       -1.0911621031901384       -0.6935948393531517       -0.0948635171832913        0.9996550612373086 
N       -0.7122107382011477       -1.9078933482922869        0.0630417044854800        0.2606941621717392 
O       -0.7078375852515627       -1.5794648682457730       -0.3449090555234357       -0.1236190486061309 
O       -0.7039543560173803       -1.8209493020857916        0.2571424508321986       -0.1643236121784245 
N        0.7278000457178432        0.8925466574722986       -0.0858008829241725        0.9999999948381415 
O        0.7207229810635347        1.0015267749110077       -0.0985765898933123       -0.8239917816950386 
N        0.5067577902602907        1.7842839868538556       -0.0064357663523595        0.3004230678793490 
O        0.5004030534044930        1.3889161109976043        0.0024301336665247       -0.8801993993792271 
N        0.5474778533313382       -0.3978629299761535       -0.0825647995022968        0.8953032486864562 
O        0.6532205620211313       -0.2221524144848272       -0.2433081521730100       -0.9999870909131459 
O        0.7763592994844851       -0.2569833075567546        0.4111232390192026       -0.3344776276935139 
N        0.5991845443125325        0.3369648195793868       -0.0132347919566831        0.9999828272452976 
N        2.6872885655325716       -0.0492802886553632       -0.1721613319260747        0.8427994806817060 
O        2.5862210897433067       -0.1011863739872031       -0.2021069466960129       -0.9999999981943856 
N        1.9583981055057100       -0.3689708332243121       -0.1776453039215982        0.8161218998081532 
O        1.5817804904527148       -0.5299510079949507       -0.3447399378083071       -0.6963015746314082 
N        1.3711153011512651       -0.8469098628666410        0.0410111305458408        0.4512148656881398 
O        1.5016406637024908       -0.5950732083404066        0.2730517674109385       -0.6258737491506617 
N        1.7883759906279708       -2.1376182432558593        0.0208299501367914        0.0698071186678447 

        RMSE         8.007722309e-02 kcal/mol
         MAE         4.905884972e-02 kcal/mol
     max. AE         1.308882818e+00 kcal/mol

Coordinates in bohr
s                   x[bohr]                   y[bohr]                   z[bohr]                      q[e]
-       -3.3249896841402058        2.0955497441192668       -0.5846801824416210       -0.9174940035338179 
+       -3.5852119577637578        2.5871456252420217       -0.3969336855558058        0.1914746168227119 
+       -3.2490792454832986        1.9705724953794317       -0.5509307601538224        0.8489613803586482 
+       -5.6735960255639455       -1.4258211262745863        0.0603445901643046        0.4271299014182385 
+       -4.8674803935762982       -1.4875302302408913        0.1047062612226878        0.5737992507302988 
-       -5.1998848617447901       -1.3977189089542001        0.0866227801921977       -0.9693337248541827 
-       -3.1952787675205192       -0.3109571485881796        0.4025141992110501       -0.6033282222873704 
+       -2.6568308379495695        0.0367852279034787       -0.2728826945253169        0.9434898024377052 
+       -4.1732403907140307       -0.4683016882531807        0.1182294493067411        0.3169344228237564 
-       -2.7729240783270686       -0.1283762635030704       -0.5532941067320571       -0.8101365101334467 
-       -2.0068835949220305       -1.0804740935962027        0.7542685686934516       -0.3495191407391372 
-       -2.2264509596333815       -1.0482394003224473       -0.6404532230335546       -0.6392056175056032 
+       -2.0619973841738393       -1.3107041934844927       -0.1792660537912682        0.9996550612373086 
+       -1.3458831413386996       -3.6053956437450059        0.1191315473318527        0.2606941621717392 
-       -1.3376190805577461       -2.9847558096047120       -0.6517836059261168       -0.1236190486061309 
-       -1.3302808413542204       -3.4410952200745526        0.4859287721099034       -0.1643236121784245 
+        1.3753426608972763        1.6866686146634648       -0.1621401583066347        0.9999999948381415 
-        1.3619689478970272        1.8926111748280736       -0.1862827437889564       -0.8239917816950386 
+        0.9576333661803792        3.3718078210005515       -0.0121618349326112        0.3004230678793490 
-        0.9456246547932641        2.6246708709374151        0.0045922867454035       -0.8801993993792271 
+        1.0345831276231690       -0.7518519186764793       -0.1560248473630386        0.8953032486864562 
-        1.2344078723392300       -0.4198071910822170       -0.4597857383995805       -0.9999870909131459 
-        1.4671063447271220       -0.4856280349263859        0.7769102692919967       -0.3344776276935139 
+        1.1322946053548411        0.6367711768030773       -0.0250101303142583        0.9999828272452976 
+        5.0782390411545144       -0.0931262421977496       -0.3253377431726942        0.8427994806817060 
-        4.8872492055533394       -0.1912145206158167       -0.3819267496480505       -0.9999999981943856 
+        3.7008357959991449       -0.6972537725793789       -0.3357009475733896        0.8161218998081532 
-        2.9891317010689495       -1.0014621924928246       -0.6514640197847056       -0.6963015746314082 
+        2.5910322179526610       -1.6004275778607537        0.0774997992143427        0.4512148656881398 
-        2.8376893877371496       -1.1245253069204486        0.5159930211096130       -0.6258737491506617 
+        3.3795405868779462       -4.0395127479860742        0.0393628981147368        0.0698071186678447 

total molecule built from fragment files: /home/boittier/pydcm/models/fbutadiene-0/3-fragfit/frag1/fit1/10charges.xyz /home/boittier/pydcm/models/fbutadiene-0/3-fragfit/frag2/fit1/6charges.xyz /home/boittier/pydcm/models/fbutadiene-0/3-fragfit/frag3/fit2/8charges.xyz /home/boittier/pydcm/models/fbutadiene-0/3-fragfit/frag4/fit2/7charges.xyz 