40
s                      x[A]                      y[A]                      z[A]                      q[e]
N       -1.7404134873977080        0.7427632930349305       -0.0426595044118068        0.8060079248773184 
O       -1.8506505999890082        0.9684951920465742        0.1200375797692183       -0.8393292586370477 
O       -1.7761672406061881        0.8053489872303474       -0.1657908503460922       -0.5657508735957483 
N       -1.8864487177278528        1.1225083742192983        0.0696146204487080        0.6497938506054747 
N       -2.5567504467403421       -0.3898256553529065        0.1217291354513247        0.8895459298239956 
O       -2.6655715000434150       -0.4425455693335095        0.1480459480402610       -0.8991058133024762 
N       -3.0665692826662228       -0.6595985924125981        0.0425932416369887        0.2100084489287929 
O       -2.6290893799045860       -0.4178901327573155       -0.2347155601307716       -0.1300646392734456 
O       -1.6680767827145848       -0.2127203702890847        0.3782694639596563       -0.4844708113512521 
N       -1.4832930812223484        0.0538623551505697       -0.1425841837785058        0.9999062633488619 
N       -1.9847175277422242       -0.3314522802004010        0.0666637216846059        0.3437424317547798 
O       -1.5205503228956720       -0.1000014951216192       -0.2802586045118545       -0.9787865393967120 
O       -0.7549328698395911       -0.9717716724501081       -0.2331725696007093       -0.4371476950749207 
O       -1.1062474025786522       -0.4583667181851444       -0.4068593934200032       -0.5545887480037041 
O       -0.9738553883958326       -0.5695221303243991        0.3720864997434615       -0.3219630518797482 
N       -0.9486863833931422       -0.6044610277363202       -0.2088556442372110        0.9459016952297986 
O       -0.8558460967484898       -1.5534735073107193        0.2257706840645127       -0.4015893735220475 
N       -0.8838592737241193       -1.3937558217030890        0.0159681881675178        0.9999969570301017 
N       -0.7986358813374473       -2.0682668158993760       -0.0117253150258993        0.1221284400128523 
O       -0.8946057440058027       -1.6003989621778227       -0.1753737147050335       -0.3690564194125801 
N        0.7278000457178432        0.8925466574722986       -0.0858008829241725        0.9999999948381415 
O        0.7207229810635347        1.0015267749110077       -0.0985765898933123       -0.8239917816950386 
N        0.5067577902602907        1.7842839868538556       -0.0064357663523595        0.3004230678793490 
O        0.5004030534044930        1.3889161109976043        0.0024301336665247       -0.8801993993792271 
N        0.5474778533313382       -0.3978629299761535       -0.0825647995022968        0.8953032486864562 
O        0.6532205620211313       -0.2221524144848272       -0.2433081521730100       -0.9999870909131459 
O        0.7763592994844851       -0.2569833075567546        0.4111232390192026       -0.3344776276935139 
N        0.5991845443125325        0.3369648195793868       -0.0132347919566831        0.9999828272452976 
O        2.4635996063804604       -0.1059601255490179       -0.0865630762522478       -0.9975595865288731 
N        2.4767845108939568       -0.3805960490554010        0.0081734154467015        0.8818962930942310 
O        2.4593509412164236       -0.4436622155765846        0.0674675156887957       -0.6214129575880222 
N        2.6402673257038147        0.0122002321626343       -0.0601131895431493        0.5768301063202796 
N        1.7887810814922338       -0.1525070761318631       -0.2237059178100468        0.5914635235280176 
O        1.5263798415199479       -0.3589970148019289       -0.2958816839968146       -0.7884937598258513 
N        1.5830261880921179       -0.7084672505824029        0.1295649726260082        0.5948582323515202 
O        1.4229389776769970       -0.5444997844763515        0.4760294591005267       -0.3999224673696949 
O        1.6686862568839957       -1.4968786826648788       -0.2187377048010672       -0.2174144256308684 
N        1.7639550990398682       -1.9777683737390062       -0.0343494779900531        0.1276565095931793 
O        1.6538435880416651       -1.4282042371422601        0.2280811549315552       -0.8799674851509249 
N        1.6411532265231015       -1.4170852474645408        0.1560156653502898        0.9898340600763951 

        RMSE         5.538701166e-02 kcal/mol
         MAE         3.367627477e-02 kcal/mol
     max. AE         7.373984673e-01 kcal/mol

Coordinates in bohr
s                   x[bohr]                   y[bohr]                   z[bohr]                      q[e]
+       -3.2889045980454075        1.4036190982262255       -0.0806147741477877        0.8060079248773184 
-       -3.4972225346174115        1.8301905342445592        0.2268381340985374       -0.8393292586370477 
-       -3.3564693946734629        1.5218889110618770       -0.3132992785711037       -0.5657508735957483 
+       -3.5648711680514689        2.1212332471833419        0.1315525574484485        0.6497938506054747 
+       -4.8315577655698849       -0.7366636719434141        0.2300347108321779        0.8895459298239956 
-       -5.0371997381035269       -0.8362898635093161        0.2797662755186064       -0.8991058133024762 
+       -5.7949756692968206       -1.2464606021260654        0.0804895556601372        0.2100084489287929 
-       -4.9682585275579543       -0.7896978442510033       -0.4435480939079251       -0.1300646392734456 
-       -3.1522080472760261       -0.4019832120398986        0.7148256367383536       -0.4844708113512521 
+       -2.8030174842964422        0.1017850923352346       -0.2694450376495610        0.9999062633488619 
+       -3.7505722922044225       -0.6263539878754270        0.1259761673641971        0.3437424317547798 
-       -2.8734234621500732       -0.1889754242301799       -0.5296119684748207       -0.9787865393967120 
-       -1.4266162637842563       -1.8363821844142558       -0.4406322646031027       -0.4371476950749207 
-       -2.0905044664741257       -0.8661874996637596       -0.7688527694518119       -0.5545887480037041 
-       -1.8403198365897517       -1.0762407707568531        0.7031415285724264       -0.3219630518797482 
+       -1.7927573137289641       -1.1422657132091896       -0.3946799387808534        0.9459016952297986 
-       -1.6173146112674910       -2.9356392593666585        0.4266447291407095       -0.4015893735220475 
+       -1.6702518398215893       -2.6338165980348749        0.0301755001710134        0.9999969570301017 
+       -1.5092029803918399       -3.9084575533640225       -0.0221576325289640        0.1221284400128523 
-       -1.6905597239986041       -3.0243155109558999       -0.3314082663954238       -0.3690564194125801 
+        1.3753426608972763        1.6866686146634648       -0.1621401583066347        0.9999999948381415 
-        1.3619689478970272        1.8926111748280736       -0.1862827437889564       -0.8239917816950386 
+        0.9576333661803792        3.3718078210005515       -0.0121618349326112        0.3004230678793490 
-        0.9456246547932641        2.6246708709374151        0.0045922867454035       -0.8801993993792271 
+        1.0345831276231690       -0.7518519186764793       -0.1560248473630386        0.8953032486864562 
-        1.2344078723392300       -0.4198071910822170       -0.4597857383995805       -0.9999870909131459 
-        1.4671063447271220       -0.4856280349263859        0.7769102692919967       -0.3344776276935139 
+        1.1322946053548411        0.6367711768030773       -0.0250101303142583        0.9999828272452976 
-        4.6555282016818866       -0.2002356030052980       -0.1635804948470362       -0.9975595865288731 
+        4.6804440583982503       -0.7192222450584718        0.0154455155852565        0.8818962930942310 
-        4.6474993887045466       -0.8384000189349277        0.1274951177833955       -0.6214129575880222 
+        4.9893817822339193        0.0230550957846836       -0.1135974565373270        0.5768301063202796 
+        3.3803060976118888       -0.2881965852117804       -0.4227428866892611        0.5914635235280176 
-        2.8844396549953948       -0.6784059887010240       -0.5591353077995133       -0.7884937598258513 
+        2.9914857282720670       -1.3388089754975552        0.2448422959836153        0.5948582323515202 
-        2.6889647663081364       -1.0289553935120603        0.8995652402014660       -0.3999224673696949 
-        3.1533597864533425       -2.8286905484131535       -0.4133543254492916       -0.2174144256308684 
+        3.3333917933791257       -3.7374402952857575       -0.0649111012526470        0.1276565095931793 
-        3.1253112094018065       -2.6989146639563661        0.4310108859840629       -0.8799674851509249 
+        3.1013299034354476       -2.6779028201954049        0.2948268574411632        0.9898340600763951 

total molecule built from fragment files: /home/boittier/pydcm/models/fbutadiene-0/3-fragfit/frag1/fit2/12charges.xyz /home/boittier/pydcm/models/fbutadiene-0/3-fragfit/frag2/fit1/8charges.xyz /home/boittier/pydcm/models/fbutadiene-0/3-fragfit/frag3/fit2/8charges.xyz /home/boittier/pydcm/models/fbutadiene-0/3-fragfit/frag4/fit1/12charges.xyz 