28
s                      x[A]                      y[A]                      z[A]                      q[e]
N        1.9780292896779248        1.0421239656635202       -1.1578144277621443        0.8814775094761862
N        2.0378676459274367        0.6267590591130102       -0.7655153323260697        0.2863113764092561
O        1.9884440847679510        0.9893125883931125       -1.1238560415711114       -0.9855139882631005
N        3.3423234013821586       -0.3737967376058560        0.0655863464702424        0.0626577914556945
N        2.0590157529488855       -0.2604428897974557        0.1486547110748308        0.3610114227970464
N        1.4350747124157872        0.2424848336027843       -0.3370091186573119        0.3681052180622325
O        1.7143022403475778       -0.0016867296429737       -0.0963449644777187       -0.9679278914039808
O        1.3011744343430565       -0.3040456469485319        0.3681882437622995       -0.9971318596932219
O        0.9662068004407858       -0.4882498884287286       -0.2018393159473299       -0.5576130179323299
N        0.8026425898365226       -0.3992582243098915        0.0685891905869642        0.9982570420484234
N        1.4206549176869681       -0.5152959303845460        0.4409361015824356        0.6578844244787974
N        0.9544185534986945       -1.4514344661517447        1.0130331939604305        0.4898445028315053
N        0.5788441894626778       -1.3383047580383698        0.8748792453132319        0.1167590454679402
O        0.8884392780743722       -1.3418098280567892        0.9110467214724602       -0.6486292084125357
N       -1.5474700103968619       -1.2892204311876705       -0.2652259148713104        0.4167890786182703
O       -1.3747267163496486       -0.7924008307319060       -0.1762605846198406       -0.5080548256684900
N       -1.0005944592088678       -0.6591159664733034       -0.1006987060939741        0.7662345478433942
O       -1.2849963774872615       -1.0527342814014220       -0.1971648847428909       -0.9991441992596534
N       -0.2286147088302695        0.4694051478896977        0.0099906034894799        0.9709935796563636
O       -0.6754672786921420        0.2453035035548528        0.2352089300615755       -0.4834697859304392
O       -0.4351671834153648        0.4446508623314060       -0.1279108411067931       -0.9619578830748742
N       -0.9996740756445395       -0.1016770730798245       -0.0428400221094899        0.9220877950249416
O       -2.3362763819050794        1.4366496841205403        0.1344825051654286       -0.1660794303893175
N       -2.2810432946071493        1.4498457294583453        0.0237203729080444        0.2852379204357681
O       -0.5363073594267400        1.0494076995419672       -0.0951204760283330       -0.9963619403754332
N       -0.4829670721532183        1.0993954774615178        0.0432632610843888        0.9991972902720466
O       -0.7833719025928501        0.8698974227290519        0.4494582652927905       -0.3805908572699641
N       -0.1402022787996651        2.4319506641269255        0.4466838475785689        0.0696263427954743

        RMSE         4.675449154E-01 kcal/mol
         MAE         2.768039351E-01 kcal/mol
     max. AE         4.255910722E+00 kcal/mol

Coordinates in bohr
s                   x[bohr]                   y[bohr]                   z[bohr]                      q[e]
+        3.7379336256251650        1.9693288838800709       -2.1879521725741293        0.8814775094761862
+        3.8510117307343203        1.1844029683732227       -1.4466143229351054        0.2863113764092561
-        3.7576147359980774        1.8695298445307718       -2.1237801230105484       -0.9855139882631005
+        6.3160758513209361       -0.7063734606646908        0.1239402323981458        0.0626577914556945
+        3.8909758610767300       -0.4921657330399862        0.2809166911904930        0.3610114227970464
+        2.7118981760359926        0.4582299250864758       -0.6368549360442394        0.3681052180622325
-        3.2395617305157027       -0.0031874570729115       -0.1820655964298515       -0.9679278914039808
-        2.4588633223558851       -0.5745630023703679        0.6957749433240527       -0.9971318596932219
-        1.8258662333879712       -0.9226585699156381       -0.3814210284902062       -0.5576130179323299
+        1.5167746714192085       -0.7544886972823037        0.1296147853761923        0.9982570420484234
+        2.6846487132132038       -0.9737681819897750        0.8332484708178554        0.6578844244787974
+        1.8035896751681528       -2.7428136300768875        1.9143552925830130        0.4898445028315053
+        1.0938569873970831       -2.5290294650896246        1.6532821664892425        0.1167590454679402
-        1.6789069146600333       -2.5356530874749907        1.7216287910792094       -0.6486292084125357
+       -2.9242945070094470       -2.4362735302893470       -0.5012043404807692        0.4167890786182703
-       -2.5978569912507843       -1.4974205516685690       -0.3330842316445830       -0.5080548256684900
+       -1.8908494905553448       -1.2455486615509874       -0.1902929757055823        0.7662345478433942
-       -2.4282912256563476       -1.9893794747293401       -0.3725876337215224       -0.9991441992596534
+       -0.4320191879404948        0.8870471713915573        0.0188795044231604        0.9709935796563636
-       -1.2764481634364444        0.4635564393339425        0.4444804600783423       -0.4834697859304392
-       -0.8223467954419134        0.8402683512550100       -0.2417164581687921       -0.9619578830748742
+       -1.8891102176883914       -0.1921418213590292       -0.0809559089954941        0.9220877950249416
-       -4.4149225151761184        2.7148744412133214        0.2541351034281277       -0.1660794303893175
+       -4.3105471071195272        2.7398113528408974        0.0448250083899336        0.2852379204357681
-       -1.0134740283840122        1.9830931460810546       -0.1797516486167259       -0.9963619403754332
+       -0.9126754939838126        2.0775563559692132        0.0817557147436724        0.9991972902720466
-       -1.4803583502793136        1.6438678861995217        0.8493530262267416       -0.3805908572699641
+       -0.2649439090964493        4.5957207058251672        0.8441101365892442        0.0696263427954743
