8
s                      x[A]                      y[A]                      z[A]                      q[e]
O       -2.0233640745541219       -0.5718432088018642       -0.0931243599411378       -0.8436503866317974
N       -1.4070481464614508       -0.2579576553040143       -0.2130974531765991        0.1972660870439896
O       -1.9801454954454945       -0.7568590976311563        0.4847037812081915       -0.1362991377190352
N       -2.1569796723146668       -0.5438570422114311       -0.0184163879100240        0.8623491406657225
O        0.3618966269306750       -1.2858206363603941        0.1208710730910083       -0.9708491196829448
O        0.4559269309524926       -1.5577599959002684        0.3611749131628530       -0.5065626631972543
N        0.4676667393190378       -1.5343646960544721        0.1213235477860975        0.9999999173082471
N        0.3900582892314224       -1.3924672985883149        0.3031217916149797        0.6003527516824444

        RMSE         5.298830604E-02 kcal/mol
         MAE         3.009813410E-02 kcal/mol
     max. AE         7.550295496E-01 kcal/mol

Coordinates in bohr
s                   x[bohr]                   y[bohr]                   z[bohr]                      q[e]
-       -3.8236039529977250       -1.0806270513385188       -0.1759795358973066       -0.8436503866317974
+       -2.6589356421452162       -0.4874693204898409       -0.4026958245363455        0.1972660870439896
-       -3.7419326749509856       -1.4302564100840331        0.9159573984573145       -0.1362991377190352
+       -4.0761008388544910       -1.0277408611811620       -0.0348019293701380        0.8623491406657225
-        0.6838855106259616       -2.4298488491830468        0.2284132246322011       -0.9708491196829448
-        0.8615770327207327       -2.9437397614458165        0.6825216692638058       -0.5065626631972543
+        0.8837620552988615       -2.8995290521142958        0.2292682778846196        0.9999999173082471
+        0.7371033396120047       -2.6313818329880250        0.5728171688104108        0.6003527516824444
