1
s                      x[A]                      y[A]                      z[A]                      q[e]
O       -2.0822695611922297       -0.1988178200338341       -0.5984363504245609       -0.1035867921879968

        RMSE         2.361341586E+00 kcal/mol
         MAE         1.816355540E+00 kcal/mol
     max. AE         9.411625289E+00 kcal/mol

Coordinates in bohr
s                   x[bohr]                   y[bohr]                   z[bohr]                      q[e]
-       -3.9349191900305645       -0.3757112287245090       -1.1308808058209285       -0.1035867921879968
