4
s                      x[A]                      y[A]                      z[A]                      q[e]
O        2.5044704431343776       -0.7323974686346804       -0.3180728093378842       -0.1488800244581556
N        2.4477203145473281       -0.5747862020583353        0.0191655343686512        0.6276132911043719
N        2.7463772966072866       -0.9306529506728458        0.0370263176637287        0.4354932556843071
O        2.5883122223576884       -0.7034728724779525        0.0846422206875024       -0.9999999973535072

        RMSE         1.046597619E-01 kcal/mol
         MAE         6.551627024E-02 kcal/mol
     max. AE         1.165260491E+00 kcal/mol

Coordinates in bohr
s                   x[bohr]                   y[bohr]                   z[bohr]                      q[e]
-        4.7327632268279771       -1.3840306306981358       -0.6010704976035665       -0.1488800244581556
+        4.6255210262139386       -1.0861885025823184        0.0362176110048001        0.6276132911043719
+        5.1899009277630324       -1.7586791946208922        0.0699695998186488        0.4354932556843071
-        4.8912012274311349       -1.3293710656724500        0.1599506157499404       -0.9999999973535072
