4
s                      x[A]                      y[A]                      z[A]                      q[e]
O       -2.0477729172619199       -0.5416823128542186       -0.0796923742242691       -0.9999996264259033
N       -1.4800564749541334       -0.2398935006874997       -0.2092836279830280        0.2110043746774107
O       -1.9735375626292737       -0.7599842105585968        0.4928898015309884       -0.1229072049894860
N       -2.1652681355511065       -0.5254729704926440       -0.0208590200668296        0.9885568395456571

        RMSE         2.456258701E-02 kcal/mol
         MAE         1.508332593E-02 kcal/mol
     max. AE         2.572242214E-01 kcal/mol

Coordinates in bohr
s                   x[bohr]                   y[bohr]                   z[bohr]                      q[e]
-       -3.8697299807548413       -1.0236312182990377       -0.1505967615713633       -0.9999996264259033
+       -2.7969013878738456       -0.4533330155767035       -0.3954887394301250        0.2110043746774107
-       -3.7294454916729034       -1.4361620176280234        0.9314267349248325       -0.1229072049894860
+       -4.0917637643722884       -0.9930000005618796       -0.0394178351717370        0.9885568395456571
