22
s                      x[A]                      y[A]                      z[A]                      q[e]
N        1.6054993753857596       -0.1718480585855703       -0.1867923629631590        0.4485593780020277 
O        1.8422127015055734       -0.0411647643577122       -0.2459466950200284       -0.2409447843072524 
O        2.1482207982008252       -0.2813770305043615        0.8746940949910148       -0.8198896509317037 
N        2.2690175314923415       -0.2364690215947093        0.9717347684087972        0.6937115489942585 
N        2.2844472669789564       -0.2957354128879646       -1.0053282479084893        0.3444654019722542 
O        2.0312513673801766       -0.4089136258353510       -0.7977900533986713       -0.4979485037583461 
N        1.6899437157120560       -2.0095622961907114       -0.0758659431609130        0.0350392802765233 
N        1.0245892963884711        0.3233404591626528        0.0449512806516742        0.5661902750366188 
N       -0.0674233807368335        0.2960506747011713       -0.0082710333387461        0.4244448333321310 
O        0.7331293643738133        1.1917289127398556        0.0040397560198831       -0.6231587899990845 
O       -0.1206845066782700        1.3526586228792798        0.0036760938815697       -0.2594115386563719 
N       -1.1256028536785145       -0.5831796582057137       -0.0132011478295834        0.4309650480417517 
O       -0.5411890905836652       -0.6851929466049992        0.3890921024205233       -0.5200676346569154 
O       -0.4966836592600706       -0.6767209837693987       -0.2515459492054000       -0.9999999985066401 
N       -0.1276020283831234       -0.6018648951187106       -0.0742087585917986        0.5278893022907579 
N       -0.4657676904827384       -1.7675040712481482       -0.0043217515940995        0.2797269689645951 
O       -2.0201493881369719       -0.5044045715917181       -0.2226630571241523       -0.9983685752737698 
N       -1.7667725710266704       -0.4850257162642500       -0.1689689107432307        0.9496197934514512 
N       -2.1075939250922127        0.6688649153938692        1.1482100607396759        0.0511834117764229 
N       -2.5605162161854462       -0.7671077530957486        0.1303044553299284        0.6381555794282845 
O       -2.5228392491679692       -0.7230612552948333        0.3024810872375102       -0.4811141418200637 
N       -2.1725627899502258        0.6916171572759408       -1.2415118569121180        0.0509527963430706 

        RMSE         1.550033663e-01 kcal/mol
         MAE         9.603548182e-02 kcal/mol
     max. AE         2.159137943e+00 kcal/mol

Coordinates in bohr
s                   x[bohr]                   y[bohr]                   z[bohr]                      q[e]
+        3.0339538943475368       -0.3247457423996076       -0.3529863827634857        0.4485593780020277 
-        3.4812772185640961       -0.0777901250213637       -0.4647718613896258       -0.2409447843072524 
-        4.0595486716111351       -0.5317254871391869        1.6529321633794778       -0.8198896509317037 
+        4.2878213978500970       -0.4468616556063368        1.8363124458883064        0.6937115489942585 
+        4.3169793699963765       -0.5588588954837381       -1.8997949171463757        0.3444654019722542 
-        3.8385084983176059       -0.7727347058337192       -1.5076045973540508       -0.4979485037583461 
+        3.1935305588523222       -3.7975220968222780       -0.1433658444408277        0.0350392802765233 
+        1.9361930210266818        0.6110248688455220        0.0849456032683211        0.5661902750366188 
+       -0.1274117148176669        0.5594546539253680       -0.0156299866528055        0.4244448333321310 
-        1.3854136128629939        2.2520410977705265        0.0076340319383764       -0.6231587899990845 
-       -0.2280606486912971        2.5561541533588614        0.0069468101445357       -0.2594115386563719 
+       -2.1270809654386120       -1.1020497561342024       -0.0249465521329142        0.4309650480417517 
-       -1.0226990892227517       -1.2948269184048791        0.7352774579030757       -0.5200676346569154 
-       -0.9385960190167024       -1.2788172300599916       -0.4753529175404999       -0.9999999985066401 
+       -0.2411328692336631       -1.1373597339318406       -0.1402342196926653        0.5278893022907579 
+       -0.8801733093554317       -3.3400983783939315       -0.0081669263036433        0.2797269689645951 
-       -3.8175287996168241       -0.9531864277055190       -0.4207721657486370       -0.9983685752737698 
+       -3.3387160434147383       -0.9165657011638829       -0.3193049418969168        0.9496197934514512 
+       -3.9827750136622360        1.2639714134825348        2.1698023921517500        0.0511834117764229 
+       -4.8386740379573734       -1.4496234570815882        0.2462397156673335        0.6381555794282845 
-       -4.7674748942128220       -1.3663876454803858        0.5716063716127068       -0.4811141418200637 
+       -4.1055483660342649        1.3069669162659987       -2.3461172211618737        0.0509527963430706 

total molecule built from fragment files: /home/boittier/pydcm/models/amide1/3-fragfit/frag1/fit1/7charges.xyz /home/boittier/pydcm/models/amide1/3-fragfit/frag2/fit2/4charges.xyz /home/boittier/pydcm/models/amide1/3-fragfit/frag3/fit2/5charges.xyz /home/boittier/pydcm/models/amide1/3-fragfit/frag4/fit2/6charges.xyz 