24
s                      x[A]                      y[A]                      z[A]                      q[e]
N        1.6054993753857596       -0.1718480585855703       -0.1867923629631590        0.4485593780020277 
O        1.8422127015055734       -0.0411647643577122       -0.2459466950200284       -0.2409447843072524 
O        2.1482207982008252       -0.2813770305043615        0.8746940949910148       -0.8198896509317037 
N        2.2690175314923415       -0.2364690215947093        0.9717347684087972        0.6937115489942585 
N        2.2844472669789564       -0.2957354128879646       -1.0053282479084893        0.3444654019722542 
O        2.0312513673801766       -0.4089136258353510       -0.7977900533986713       -0.4979485037583461 
N        1.6899437157120560       -2.0095622961907114       -0.0758659431609130        0.0350392802765233 
N        1.0441941645251713        0.2227843712645559        0.0522551807476416        0.4520269941048343 
N       -0.0695013684567177        0.2874404171393228       -0.0041321680393245        0.4006613443686534 
O        0.1056726037362508        1.5451976780899783        0.0217544558226352       -0.7653605156653672 
O        0.6749372305279382        1.4139794509038512        0.0062046634397654       -0.5847475464611305 
N        0.2569083271352445        1.6666043718593784        0.0281766402627437        0.6054845033663034 
N       -1.1256028536785145       -0.5831796582057137       -0.0132011478295834        0.4309650480417517 
O       -0.5411890905836652       -0.6851929466049992        0.3890921024205233       -0.5200676346569154 
O       -0.4966836592600706       -0.6767209837693987       -0.2515459492054000       -0.9999999985066401 
N       -0.1276020283831234       -0.6018648951187106       -0.0742087585917986        0.5278893022907579 
N       -0.4657676904827384       -1.7675040712481482       -0.0043217515940995        0.2797269689645951 
N       -2.4732131002191147       -0.0487986052061935       -0.2423540392591155        0.6732444125194050 
N       -1.6074791016722902       -0.4065821676509778       -0.1166643807886557        0.4595023611606858 
O       -2.2362691294274013        0.0272047493495486       -0.4048450123444677       -0.9887809966351543 
N       -2.0502062757010000        0.7466684027229356        1.0571733576905538        0.0598238870395781 
N       -2.7411339061334967       -0.9666670671220113        0.0180117447856033        0.2218012948604766 
O       -2.4715211976708438       -0.5912229363472326        0.0588582141828439       -0.4698091067798649 
N       -2.1114832792760847        0.4262892557737625       -0.8946666942659598        0.2546470117402694 

        RMSE         1.270182612e-01 kcal/mol
         MAE         7.825702079e-02 kcal/mol
     max. AE         2.159137943e+00 kcal/mol

Coordinates in bohr
s                   x[bohr]                   y[bohr]                   z[bohr]                      q[e]
+        3.0339538943475368       -0.3247457423996076       -0.3529863827634857        0.4485593780020277 
-        3.4812772185640961       -0.0777901250213637       -0.4647718613896258       -0.2409447843072524 
-        4.0595486716111351       -0.5317254871391869        1.6529321633794778       -0.8198896509317037 
+        4.2878213978500970       -0.4468616556063368        1.8363124458883064        0.6937115489942585 
+        4.3169793699963765       -0.5588588954837381       -1.8997949171463757        0.3444654019722542 
-        3.8385084983176059       -0.7727347058337192       -1.5076045973540508       -0.4979485037583461 
+        3.1935305588523222       -3.7975220968222780       -0.1433658444408277        0.0350392802765233 
+        1.9732408498476803        0.4210014162325423        0.0987479730978087        0.4520269941048343 
+       -0.1313385422159237        0.5431836264422031       -0.0078086653331738        0.4006613443686534 
-        0.1996922655634226        2.9200002098110089        0.0411099605358843       -0.7653605156653672 
-        1.2754464252023541        2.6720337157193654        0.0117251137526409       -0.5847475464611305 
+        0.4854863424752220        3.1494255942170457        0.0532461293759399        0.6054845033663034 
+       -2.1270809654386120       -1.1020497561342024       -0.0249465521329142        0.4309650480417517 
-       -1.0226990892227517       -1.2948269184048791        0.7352774579030757       -0.5200676346569154 
-       -0.9385960190167024       -1.2788172300599916       -0.4753529175404999       -0.9999999985066401 
+       -0.2411328692336631       -1.1373597339318406       -0.1402342196926653        0.5278893022907579 
+       -0.8801733093554317       -3.3400983783939315       -0.0081669263036433        0.2797269689645951 
+       -4.6736950708300373       -0.0922159924655751       -0.4579827264301353        0.6732444125194050 
+       -3.0376950345615086       -0.7683288887113749       -0.2204637123202492        0.4595023611606858 
-       -4.2259358913828571        0.0514095218591909       -0.7650461411824284       -0.9887809966351543 
+       -3.8743280811829961        1.4109986854919823        1.9977679684833631        0.0598238870395781 
+       -5.1799919806531012       -1.8267358790642054        0.0340372622213851        0.2218012948604766 
-       -4.6704978386143914       -1.1172493478717689        0.1112258969839052       -0.4698091067798649 
+       -3.9901248273423691        0.8055698852966315       -1.6906749032892348        0.2546470117402694 

total molecule built from fragment files: /home/boittier/pydcm/models/amide1/3-fragfit/frag1/fit1/7charges.xyz /home/boittier/pydcm/models/amide1/3-fragfit/frag2/fit2/5charges.xyz /home/boittier/pydcm/models/amide1/3-fragfit/frag3/fit2/5charges.xyz /home/boittier/pydcm/models/amide1/3-fragfit/frag4/fit1/7charges.xyz 