34
s                      x[A]                      y[A]                      z[A]                      q[e]
N        1.4647174124678686       -0.1106668690489560       -0.0632986628833370        0.2234300837452527 
O        1.7151815558268750       -1.0251649160781477       -0.1406958795127992       -0.4297171026853452 
O        2.1709969744931259       -0.2344008930884036        0.7048777122999934       -0.9992404940185713 
N        2.2337176534408756       -0.2785072140678453        0.6654726367073951        0.4909974879608976 
N        2.3406156044742294       -0.1411895659462344        0.9601926106784122        0.3588578473082562 
N        2.3476263645331001       -0.0943303056869075       -1.0906157199393534        0.9893809101267674 
O        2.3021992425911417       -0.0889075627715850       -1.0570720845309551       -0.9999703601005612 
O        1.6608552458530161       -1.4285792383850424        0.3558346464666283       -0.6707456767341741 
N        1.6605556496271783       -1.3851400535416774        0.2283805358052226        0.9999999746452393 
O        0.3920738427100259        0.4501390073096444        0.0065642266133078       -0.7821822709024975 
N        0.9476830261192624        0.2463945344705183        0.0432587537844178        0.6563907327068773 
N        0.0812291373800779        0.4116138472161557       -0.0038682732573346        0.9825446866083263 
O        0.0574105502113769        1.3764583973567466        0.0028588485538118       -0.5329932021969278 
O        0.6625810723000883        1.5372356147609252        0.0024524135169618       -0.9999999924177647 
N        0.5377235105780985        1.6224305608355665        0.0040302220072922        0.7843048259152798 
N       -1.0183219520485989       -0.4592359261388394        0.2570518860878198        0.3887687402912740 
O       -0.5783716246916467       -0.7113381565790360        0.5111436910549944       -0.3907399561372579 
O       -0.6139451531152926       -0.6692719116500804       -0.4020813591010953       -0.7213170196160568 
N       -1.0338949949263696       -0.5671857305480018       -0.2875982878450563        0.3777158184744041 
N       -0.3308312727947343       -0.4691444010670308       -0.0076388361369996        0.6985144109028163 
O       -0.6364667113465573       -0.4225506897503943        0.0830725623976354       -0.8796258922735642 
N       -0.4735892525127019       -1.8008716416006361        0.0005279640999619        0.2451975844919337 
O       -2.3509164843527648        0.1086594237284189       -0.0757461677507165       -0.6830830776455323 
O       -1.7025111791352034       -0.5073824298419584       -0.2087213197337980       -0.4707262281241373 
N       -2.4905011169834546        0.0965341051357142       -0.0416172984076100        0.6381906145834619 
N       -1.6419799754779973       -0.3474943229183301       -0.1652060351586002        0.7013070625824881 
N       -2.1181578168880040        0.7079143264618118        1.0546377060259211        0.0686992118478729 
O       -2.4783001974967318       -0.5954880914071646        0.0934262416542552       -0.9999913416331023 
N       -1.8909179450791740       -0.6453004212321158       -0.0123739482025407        0.3430228547374022 
N       -2.6356219403487531       -0.7317613280734193        0.0317076767903970        0.8903449297806795 
O       -2.5599710887767246       -0.6151798240058064       -0.1316705650869644       -0.2971232681246463 
N       -2.3698750518079041        0.3762056117944330       -0.5974046819999839        0.5469385593035245 
N       -2.1786876677695810        0.5963132329937193       -0.8769841616799379        0.3946316431937594 
O       -2.2698530478510395        0.4396451915482105       -0.6714808420042271       -0.9217820965963746 

        RMSE         7.874351480e-02 kcal/mol
         MAE         4.728662390e-02 kcal/mol
     max. AE         1.473971185e+00 kcal/mol

Coordinates in bohr
s                   x[bohr]                   y[bohr]                   z[bohr]                      q[e]
+        2.7679145602954769       -0.2091300585188051       -0.1196171282942722        0.2234300837452527 
-        3.2412231612134272       -1.9372807845138138       -0.2658766600042709       -0.4297171026853452 
-        4.1025894038716313       -0.4429534594202064        1.3320257317182114       -0.9992404940185713 
+        4.2211143009018306       -0.5263023204365908        1.2575609362881308        0.4909974879608976 
+        4.4231221370976499       -0.2668095920877527        1.8145009304606774        0.3588578473082562 
+        4.4363705525807369       -0.1782584301691315       -2.0609648695450953        0.9893809101267674 
-        4.3505257396597168       -0.1680109319525500       -1.9975765899617219       -0.9999703601005612 
-        3.1385613213910868       -2.6996233135506094        0.6724299790722806       -0.6707456767341741 
+        3.1379951666170345       -2.6175351570285033        0.4315766338015220        0.9999999746452393 
-        0.7409121300194046        0.8506393805956404        0.0124045896262275       -0.7821822709024975 
+        1.7908612434126627        0.4656181552379369        0.0817471912608629        0.6563907327068773 
+        0.1535008119386929        0.7778373843519991       -0.0073099765053916        0.9825446866083263 
-        0.1084902087542641        2.6011292057117497        0.0054024404096097       -0.5329932021969278 
-        1.2520966718799325        2.9049540918152181        0.0046343895577966       -0.9999999924177647 
+        1.0161500926206597        3.0659491955098432        0.0076160152670077        0.7843048259152798 
+       -1.9243494575481204       -0.8678300645233549        0.4857576295587999        0.3887687402912740 
-       -1.0929638902486103       -1.3442342011702204        0.9659215168955522       -0.3907399561372579 
-       -1.1601881114169748       -1.2647405248851600       -0.7598235938249489       -0.7213170196160568 
+       -1.9537782413958258       -1.0718256153796359       -0.5434819588176664        0.3777158184744041 
+       -0.6251804540418255       -0.8865543671025496       -0.0144353071707450        0.6985144109028163 
-       -1.2027476853103638       -0.7985050199221757        0.1569843801024067       -0.8796258922735642 
+       -0.8949539183949006       -3.4031539432654667        0.0009977074807458        0.2451975844919337 
-       -4.4425879775095645        0.2053365369258927       -0.1431395017353842       -0.6830830776455323 
-       -3.2172796210938239       -0.9588137638313649       -0.3944261022758481       -0.4707262281241373 
+       -4.7063646854009624        0.1824230072612038       -0.0786452903761820        0.6381906145834619 
+       -3.1028922324215622       -0.6566690529097290       -0.3121941381127721        0.7013070625824881 
+       -4.0027378745295010        1.3377641004171505        1.9929762816346699        0.0686992118478729 
-       -4.6833082907620867       -1.1253093222339314        0.1765499968712699       -0.9999913416331023 
+       -3.5733167831262227       -1.2194409764568566       -0.0233833714999314        0.3430228547374022 
+       -4.9806032768013973       -1.3828283991127912        0.0599188208689422        0.8903449297806795 
-       -4.8376438965260142       -1.1625213010861464       -0.2488212887784844       -0.2971232681246463 
+       -4.4784144751361676        0.7109255216651027       -1.1289311532866881        0.5469385593035245 
+       -4.1171227068264997        1.1268686137343182       -1.6572597619171627        0.3946316431937594 
-       -4.2894002948270282        0.8308089442316785       -1.2689147979823985       -0.9217820965963746 

total molecule built from fragment files: /home/boittier/pydcm/models/amide1/3-fragfit/frag1/fit1/9charges.xyz /home/boittier/pydcm/models/amide1/3-fragfit/frag2/fit2/6charges.xyz /home/boittier/pydcm/models/amide1/3-fragfit/frag3/fit1/7charges.xyz /home/boittier/pydcm/models/amide1/3-fragfit/frag4/fit1/12charges.xyz 