37
s                      x[A]                      y[A]                      z[A]                      q[e]
N        1.5788563100700534       -0.1919476378196492       -0.0952691239840879        0.3916232126945903 
O        1.7730833402984794       -0.4892586145921473       -0.2025183951126690       -0.0931052956149592 
O        2.0830174800436816       -0.2261594559896160        0.6253041869403514       -0.6204142463186473 
N        2.3723940182395897       -0.1625070041685642        0.8796598407019353        0.4780180511828542 
O        2.3239852724640375       -0.3425510162024131        0.5003284593609620       -0.7061402370451243 
N        2.2436761898926565       -0.4155264336769029        0.3303617492937150        0.7704442864981914 
N        2.3134982126402015       -0.2761281030906369       -0.9525777164480497        0.4323066438582209 
N        2.0143173490578148       -0.4010670809593701       -0.9011154733921035        0.2898365749371011 
O        2.0723534958602650       -0.3656665030302911       -0.7588923812748138       -0.9997180969224456 
O        1.6212276847088245       -1.6154461870987527        0.3621427605710128       -0.4140792992362529 
N        1.6121665816868118       -1.6641228301571642        0.3000589112769629        0.4342210762142328 
O        0.4611251646290905        0.4882843256189212        0.0162813401096407       -0.7720368843236695 
N        0.9272877612595842        0.2729287393791757        0.0427698974421923        0.7426898484295326 
N        0.0591776792864071        0.4211177532736107       -0.0010072395255177        0.8624483472688207 
O        0.7765281428206295        1.4686660520159420       -0.0022944651076092       -0.3900957934679734 
O        0.0113955995736589        1.3544334599611958       -0.0002286289747948       -0.4441884192169994 
N        0.3222000809408950        1.8290503039127664        0.0191046170565777        0.9558685004303162 
O        0.3071766413739030        1.8272321624283665        0.0223688299055360       -0.8466208194067338 
N       -1.0183219520485989       -0.4592359261388394        0.2570518860878198        0.3887687402912740 
O       -0.5783716246916467       -0.7113381565790360        0.5111436910549944       -0.3907399561372579 
O       -0.6139451531152926       -0.6692719116500804       -0.4020813591010953       -0.7213170196160568 
N       -1.0338949949263696       -0.5671857305480018       -0.2875982878450563        0.3777158184744041 
N       -0.3308312727947343       -0.4691444010670308       -0.0076388361369996        0.6985144109028163 
O       -0.6364667113465573       -0.4225506897503943        0.0830725623976354       -0.8796258922735642 
N       -0.4735892525127019       -1.8008716416006361        0.0005279640999619        0.2451975844919337 
O       -2.3509164843527648        0.1086594237284189       -0.0757461677507165       -0.6830830776455323 
O       -1.7025111791352034       -0.5073824298419584       -0.2087213197337980       -0.4707262281241373 
N       -2.4905011169834546        0.0965341051357142       -0.0416172984076100        0.6381906145834619 
N       -1.6419799754779973       -0.3474943229183301       -0.1652060351586002        0.7013070625824881 
N       -2.1181578168880040        0.7079143264618118        1.0546377060259211        0.0686992118478729 
O       -2.4783001974967318       -0.5954880914071646        0.0934262416542552       -0.9999913416331023 
N       -1.8909179450791740       -0.6453004212321158       -0.0123739482025407        0.3430228547374022 
N       -2.6356219403487531       -0.7317613280734193        0.0317076767903970        0.8903449297806795 
O       -2.5599710887767246       -0.6151798240058064       -0.1316705650869644       -0.2971232681246463 
N       -2.3698750518079041        0.3762056117944330       -0.5974046819999839        0.5469385593035245 
N       -2.1786876677695810        0.5963132329937193       -0.8769841616799379        0.3946316431937594 
O       -2.2698530478510395        0.4396451915482105       -0.6714808420042271       -0.9217820965963746 

        RMSE         7.073630994e-02 kcal/mol
         MAE         4.137370371e-02 kcal/mol
     max. AE         1.896589390e+00 kcal/mol

Coordinates in bohr
s                   x[bohr]                   y[bohr]                   z[bohr]                      q[e]
+        2.9836058014044800       -0.3627284396381713       -0.1800325395038865        0.3916232126945903 
-        3.3506416681157343       -0.9245647191412120       -0.3827042744139738       -0.0931052956149592 
-        3.9363322667466267       -0.4273794015512153        1.1816535728415747       -0.6204142463186473 
+        4.4831746314665351       -0.3070937091068643        1.6623160621021831        0.4780180511828542 
-        4.3916953664989435       -0.6473275577390396        0.9454836924906089       -0.7061402370451243 
+        4.2399332060431814       -0.7852311006695176        0.6242931832796909        0.7704442864981914 
+        4.3718776970058375       -0.5218064525931965       -1.8001108669331212        0.4323066438582209 
+        3.8065078438024100       -0.7579068860608619       -1.7028613287986498        0.2898365749371011 
-        3.9161802586932053       -0.6910094939368217       -1.4340986554455557       -0.9997180969224456 
-        3.0636760892320725       -3.0527506429452909        0.6843505862343903       -0.4140792992362529 
+        3.0465530873659930       -3.1447361603705768        0.5670291227510984        0.4342210762142328 
-        0.8714002075970457        0.9227235799481002        0.0307672715344236       -0.7720368843236695 
+        1.7523197813629485        0.5157605318406646        0.0808233867262674        0.7426898484295326 
+        0.1118295984925594        0.7957971626219849       -0.0019034067081159        0.8624483472688207 
-        1.4674254123674362        2.7753764070690852       -0.0043359103437850       -0.3900957934679734 
-        0.0215345606700223        2.5595081091180893       -0.0004320461154167       -0.4441884192169994 
+        0.6088698664830328        3.4564038937606827        0.0361024913540657        0.9558685004303162 
-        0.5804796822951265        3.4529681045466605        0.0422709592070643       -0.8466208194067338 
+       -1.9243494575481204       -0.8678300645233549        0.4857576295587999        0.3887687402912740 
-       -1.0929638902486103       -1.3442342011702204        0.9659215168955522       -0.3907399561372579 
-       -1.1601881114169748       -1.2647405248851600       -0.7598235938249489       -0.7213170196160568 
+       -1.9537782413958258       -1.0718256153796359       -0.5434819588176664        0.3777158184744041 
+       -0.6251804540418255       -0.8865543671025496       -0.0144353071707450        0.6985144109028163 
-       -1.2027476853103638       -0.7985050199221757        0.1569843801024067       -0.8796258922735642 
+       -0.8949539183949006       -3.4031539432654667        0.0009977074807458        0.2451975844919337 
-       -4.4425879775095645        0.2053365369258927       -0.1431395017353842       -0.6830830776455323 
-       -3.2172796210938239       -0.9588137638313649       -0.3944261022758481       -0.4707262281241373 
+       -4.7063646854009624        0.1824230072612038       -0.0786452903761820        0.6381906145834619 
+       -3.1028922324215622       -0.6566690529097290       -0.3121941381127721        0.7013070625824881 
+       -4.0027378745295010        1.3377641004171505        1.9929762816346699        0.0686992118478729 
-       -4.6833082907620867       -1.1253093222339314        0.1765499968712699       -0.9999913416331023 
+       -3.5733167831262227       -1.2194409764568566       -0.0233833714999314        0.3430228547374022 
+       -4.9806032768013973       -1.3828283991127912        0.0599188208689422        0.8903449297806795 
-       -4.8376438965260142       -1.1625213010861464       -0.2488212887784844       -0.2971232681246463 
+       -4.4784144751361676        0.7109255216651027       -1.1289311532866881        0.5469385593035245 
+       -4.1171227068264997        1.1268686137343182       -1.6572597619171627        0.3946316431937594 
-       -4.2894002948270282        0.8308089442316785       -1.2689147979823985       -0.9217820965963746 

total molecule built from fragment files: /home/boittier/pydcm/models/amide1/3-fragfit/frag1/fit1/11charges.xyz /home/boittier/pydcm/models/amide1/3-fragfit/frag2/fit1/7charges.xyz /home/boittier/pydcm/models/amide1/3-fragfit/frag3/fit1/7charges.xyz /home/boittier/pydcm/models/amide1/3-fragfit/frag4/fit1/12charges.xyz 