39
s                      x[A]                      y[A]                      z[A]                      q[e]
N        1.7200255553906376       -0.1843391559006548       -0.2355343021563153        0.1898433386224693 
O        1.4117935321583261       -0.4945516595725218       -0.1384505075007899       -0.2518715563410983 
O        2.1022360212694986       -0.2729697589285809        0.6243019154606156       -0.8760585171925289 
N        2.2979204895494139       -0.3452761292489105        0.7423886924458277        0.3395505409311556 
N        2.3184926581604759       -0.0710765502324003        0.9458558384661055        0.2345067762717132 
N        2.2716112495197334       -0.2236389917853085       -0.9849385634626575        0.3791435766360711 
N        1.5471685958133690       -0.4375615694311157       -0.0700069015563535        0.6355094803458525 
O        2.0280859318709452       -0.2717022367526645       -0.7604762155480089       -0.6198155148613294 
O        1.9355802529414252       -1.4188524928630857       -0.0212714331369361       -0.4498714825014464 
N        1.5601898175065931       -1.9552128729878702       -0.0507233418994879        0.0797633119496338 
N        1.6590193252044230       -1.5691998199727311        0.3824676144417390        0.0150632842625723 
N        2.1018847511724523       -1.4934039083935686       -0.0032402232301225        0.2872294321246964 
N        0.0230507024932980        0.3048907575185895        0.2995346104827364        0.3041443565330686 
O        0.4440704707370519        0.3428903034556085        0.0513366771035838       -0.9852609247453972 
N        0.0112854210111976        0.2721405536565160       -0.1564754828797603        0.4809683267942283 
N        0.8607321008642674        0.2453499986072485        0.0558018947455720        0.9647310330886667 
O        0.7740342728793604        1.4122301537938486        0.0068390621688680       -0.3242587938714966 
O        0.0949621341891779        1.5239331483069436        0.0002230280197763       -0.5265532790622940 
O        0.6290862917702840        1.6606899830378934       -0.0268834074684205       -0.1807871393690346 
N        0.3574299629326513        1.7424969952570428       -0.0077528722800444        0.3750812003455522 
N       -1.0183219520485989       -0.4592359261388394        0.2570518860878198        0.3887687402912740 
O       -0.5783716246916467       -0.7113381565790360        0.5111436910549944       -0.3907399561372579 
O       -0.6139451531152926       -0.6692719116500804       -0.4020813591010953       -0.7213170196160568 
N       -1.0338949949263696       -0.5671857305480018       -0.2875982878450563        0.3777158184744041 
N       -0.3308312727947343       -0.4691444010670308       -0.0076388361369996        0.6985144109028163 
O       -0.6364667113465573       -0.4225506897503943        0.0830725623976354       -0.8796258922735642 
N       -0.4735892525127019       -1.8008716416006361        0.0005279640999619        0.2451975844919337 
O       -2.3509164843527648        0.1086594237284189       -0.0757461677507165       -0.6830830776455323 
O       -1.7025111791352034       -0.5073824298419584       -0.2087213197337980       -0.4707262281241373 
N       -2.4905011169834546        0.0965341051357142       -0.0416172984076100        0.6381906145834619 
N       -1.6419799754779973       -0.3474943229183301       -0.1652060351586002        0.7013070625824881 
N       -2.1181578168880040        0.7079143264618118        1.0546377060259211        0.0686992118478729 
O       -2.4783001974967318       -0.5954880914071646        0.0934262416542552       -0.9999913416331023 
N       -1.8909179450791740       -0.6453004212321158       -0.0123739482025407        0.3430228547374022 
N       -2.6356219403487531       -0.7317613280734193        0.0317076767903970        0.8903449297806795 
O       -2.5599710887767246       -0.6151798240058064       -0.1316705650869644       -0.2971232681246463 
N       -2.3698750518079041        0.3762056117944330       -0.5974046819999839        0.5469385593035245 
N       -2.1786876677695810        0.5963132329937193       -0.8769841616799379        0.3946316431937594 
O       -2.2698530478510395        0.4396451915482105       -0.6714808420042271       -0.9217820965963746 

        RMSE         6.817109798e-02 kcal/mol
         MAE         4.036160384e-02 kcal/mol
     max. AE         1.097145867e+00 kcal/mol

Coordinates in bohr
s                   x[bohr]                   y[bohr]                   z[bohr]                      q[e]
+        3.2503769930778366       -0.3483504936220544       -0.4450952919915540        0.1898433386224693 
-        2.6679029282569786       -0.9345671237994544       -0.2616335221591019       -0.2518715563410983 
-        3.9726500435640340       -0.5158380475492161        1.1797595543786854       -0.8760585171925289 
+        4.3424400688379619       -0.6524772746848787        1.4029112057576532        0.3395505409311556 
+        4.3813158305041471       -0.1343152041542002        1.7874083594184431        0.2345067762717132 
+        4.2927228142135592       -0.4226164148409994       -1.8612640005497343        0.3791435766360711 
+        2.9237247042542922       -0.8268714693665826       -0.1322938612524030        0.6355094803458525 
-        3.8325266925705743       -0.5134427779522602       -1.4370916682332477       -0.6198155148613294 
-        3.6577163070043728       -2.6812424297532691       -0.0401971800136354       -0.4498714825014464 
+        2.9483312452913002       -3.6948165793304493       -0.0958532174161056        0.0797633119496338 
+        3.1350919344284329       -2.9653576811089111        0.7227589908083988        0.0150632842625723 
+        3.9719862393326273       -2.8221241771681402       -0.0061231340468279        0.2872294321246964 
+        0.0435595115570720        0.5761599881668195        0.5660383379144049        0.3041443565330686 
-        0.8391715093216428        0.6479687176790038        0.0970122528910089       -0.9852609247453972 
+        0.0213263533771526        0.5142710767967110       -0.2956957865766174        0.4809683267942283 
+        1.6265478202254826        0.4636442686710913        0.1054502907138292        0.9647310330886667 
-        1.4627126815272316        2.6687280235088107        0.0129239535181609       -0.3242587938714966 
-        0.1794524129102101        2.8798160752446496        0.0004214618451573       -0.5265532790622940 
-        1.1888007146303079        3.1382490199544004       -0.0508022737551975       -0.1807871393690346 
+        0.6754446900581658        3.2928418569946447       -0.0146508042338964        0.3750812003455522 
+       -1.9243494575481204       -0.8678300645233549        0.4857576295587999        0.3887687402912740 
-       -1.0929638902486103       -1.3442342011702204        0.9659215168955522       -0.3907399561372579 
-       -1.1601881114169748       -1.2647405248851600       -0.7598235938249489       -0.7213170196160568 
+       -1.9537782413958258       -1.0718256153796359       -0.5434819588176664        0.3777158184744041 
+       -0.6251804540418255       -0.8865543671025496       -0.0144353071707450        0.6985144109028163 
-       -1.2027476853103638       -0.7985050199221757        0.1569843801024067       -0.8796258922735642 
+       -0.8949539183949006       -3.4031539432654667        0.0009977074807458        0.2451975844919337 
-       -4.4425879775095645        0.2053365369258927       -0.1431395017353842       -0.6830830776455323 
-       -3.2172796210938239       -0.9588137638313649       -0.3944261022758481       -0.4707262281241373 
+       -4.7063646854009624        0.1824230072612038       -0.0786452903761820        0.6381906145834619 
+       -3.1028922324215622       -0.6566690529097290       -0.3121941381127721        0.7013070625824881 
+       -4.0027378745295010        1.3377641004171505        1.9929762816346699        0.0686992118478729 
-       -4.6833082907620867       -1.1253093222339314        0.1765499968712699       -0.9999913416331023 
+       -3.5733167831262227       -1.2194409764568566       -0.0233833714999314        0.3430228547374022 
+       -4.9806032768013973       -1.3828283991127912        0.0599188208689422        0.8903449297806795 
-       -4.8376438965260142       -1.1625213010861464       -0.2488212887784844       -0.2971232681246463 
+       -4.4784144751361676        0.7109255216651027       -1.1289311532866881        0.5469385593035245 
+       -4.1171227068264997        1.1268686137343182       -1.6572597619171627        0.3946316431937594 
-       -4.2894002948270282        0.8308089442316785       -1.2689147979823985       -0.9217820965963746 

total molecule built from fragment files: /home/boittier/pydcm/models/amide1/3-fragfit/frag1/fit1/12charges.xyz /home/boittier/pydcm/models/amide1/3-fragfit/frag2/fit1/8charges.xyz /home/boittier/pydcm/models/amide1/3-fragfit/frag3/fit1/7charges.xyz /home/boittier/pydcm/models/amide1/3-fragfit/frag4/fit1/12charges.xyz 