22
s                      x[A]                      y[A]                      z[A]                      q[e]
N       -1.9751236375614096        1.4358165831965541        0.0441150739092490        0.0681344834244778
O       -1.6397734135099984       -0.0947311716951391        0.3020516006295980       -0.3515214125631688
N       -1.4941064433486404        0.1380722486615224       -0.1799293092416242        0.9722026348573376
N       -3.0484143403737449       -0.6789972486653093        0.0101889654651520        0.1033103581279557
O       -1.5499805954691082        0.0321384673456563       -0.3309189583979322       -0.8155118507218087
O       -0.9997386945062992       -0.7237722190141882        0.3766149545513166       -0.4016279408145307
O       -1.1308207738452358       -0.6343077886666232       -0.4061084421023283       -0.4504662438287105
N       -1.0582961049193096       -0.8742536485472293       -0.0873999311840721        0.9892112972490172
N       -0.7072291559619814       -2.1184967167465123       -0.1513467697572851        0.1043763638048880
O       -0.7846840954621626       -1.4918470037348002       -0.2725375549451912       -0.2498663640171789
N        0.7263895851318575        0.9113779498540614       -0.0855327510969875        0.9811057328141983
O        0.6978497960526412        1.0147254633730156       -0.0998157782212288       -0.7912438995582246
N        0.5051658306629380        1.7637410685344477       -0.0063194884463301        0.2990492579313315
O        0.5147270809664880        1.3715808454503073        0.0024741676141617       -0.8848916218953011
N        0.5327388042973610       -0.4130134524614751       -0.0821528053814355        0.9272193209372969
O        0.6183756783506968       -0.2157469685808460       -0.2486369574040290       -0.9715130982534684
O        0.7542307974533543       -0.2494415418384210        0.4026461658012898       -0.3467303515640118
N        0.5896513263592508        0.3499355952071885       -0.0135843422928254        0.9718750204098158
O        1.5469415413200787       -0.5121854961073788       -0.5003415415620575       -0.2011718751311903
O        1.5264154998206663       -0.5023320814237957        0.4809421744143905       -0.1975040348520962
N        2.7881496073009875        0.0236779514621424        0.0001506004701625        0.1280262760539951
N        1.7580841423622475       -1.9156565417485614        0.0044335799546109        0.1175379475893766

        RMSE         4.954574653E-01 kcal/mol
         MAE         2.919108772E-01 kcal/mol
     max. AE         4.206478871E+00 kcal/mol

Coordinates in bohr
s                   x[bohr]                   y[bohr]                   z[bohr]                      q[e]
+       -3.7324427389090942        2.7133001086321218        0.0833654076928108        0.0681344834244778
-       -3.0987226593410062       -0.1790159700475354        0.5707948009461055       -0.3515214125631688
+       -2.8234519802108022        0.2609187354963886       -0.3400171164094780        0.9722026348573376
+       -5.7606682202245576       -1.2831188399168205        0.0192543542308852        0.1033103581279557
-       -2.9290388252106552        0.0607329013752600       -0.6253462010938646       -0.8155118507218087
-       -1.8892323296396560       -1.3677312711516965        0.7116991188537356       -0.4016279408145307
-       -2.1369415595457806       -1.1986679998247007       -0.7674337328097476       -0.4504662438287105
+       -1.9998897979362780       -1.6520999599365254       -0.1651619333217574        0.9892112972490172
+       -1.3364694127068453       -4.0033785923325169       -0.2860039448139924        0.1043763638048880
-       -1.4828380354260930       -2.8191822581436341       -0.5150213377483261       -0.2498663640171789
+        1.3726773762841442        1.7222547220054143       -0.1616334743302590        0.9811057328141983
-        1.3187449912460931        1.9175532183032882       -0.1886244838375605       -0.7912438995582246
+        0.9546250678923591        3.3329875757524516       -0.0119421024165588        0.2990492579313315
-        0.9726932123830191        2.5919121568249817        0.0046754991792431       -0.8848916218953011
+        1.0067304365258882       -0.7804823112819842       -0.1552463026089511        0.9272193209372969
-        1.1685606747270185       -0.4077026830155540       -0.4698557541607388       -0.9715130982534684
-        1.4252896425724952       -0.4713761983865460        0.7608909788301216       -0.3467303515640118
+        1.1142795163319363        0.6612824364906593       -0.0256706865279139        0.9718750204098158
-        2.9232958451885529       -0.9678903130746926       -0.9455084827416638       -0.2011718751311903
-        2.8845072483148817       -0.9492700579221558        0.9088489918253693       -0.1975040348520962
+        5.2688391546016602        0.0447448434753329        0.0002845936429723        0.1280262760539951
+        3.3222975345750587       -3.6200662143464513        0.0083782518695343        0.1175379475893766
