5
s                      x[A]                      y[A]                      z[A]                      q[e]
N        1.9789251428088497        1.2413710526121489       -1.1538687993906589        0.0640017381023518
N        3.1264619788941270       -0.2681263040670775        0.0299267009315212        0.1070075863547914
N        1.9126103464646018       -0.2984462443789864        0.1465447352229499        0.6115850602286542
N        1.5127395222548032        0.3361355180664822       -0.4692263733171156        0.2229504973525127
O        1.7778807149683280       -0.1534643882391916        0.0193393062714581       -0.9999999914287063

        RMSE         1.632077167E-01 kcal/mol
         MAE         1.043720394E-01 kcal/mol
     max. AE         1.445130303E+00 kcal/mol

Coordinates in bohr
s                   x[bohr]                   y[bohr]                   z[bohr]                      q[e]
+        3.7396265426912469        2.3458513095082618       -2.1804960155591857        0.0640017381023518
+        5.9081568817668124       -0.5066852817180060        0.0565532685990587        0.1070075863547914
+        3.6143097395351065       -0.5639816650477421        0.2769294146991084        0.6115850602286542
+        2.8586633962174952        0.6352040701845332       -0.8867093364111814        0.2229504973525127
-        3.3597076350232919       -0.2900056637830035        0.0365459923094048       -0.9999999914287063
