7
s                      x[A]                      y[A]                      z[A]                      q[e]
N        1.9743198904000738        1.0444885884782482       -1.1578161519812233        0.8828902180470373
N        2.0442048267698270        0.6257300541221581       -0.7668271933833094        0.2864455235665361
O        1.9869177553026152        0.9900389986914747       -1.1231454100301796       -0.9877732520754967
N        3.3427549004744721       -0.3729056081287286        0.0656601201112527        0.0627311560329842
N        2.0548613161248634       -0.2607777162319442        0.1488633572245592        0.3609079757556989
N        1.4361693362711880        0.2428619140093580       -0.3371416961269089        0.3675619073655348
O        1.7125567096385099       -0.0016841517570627       -0.0962107392636979       -0.9672186380826908

        RMSE         1.114232654E-01 kcal/mol
         MAE         6.852944490E-02 kcal/mol
     max. AE         1.219289395E+00 kcal/mol

Coordinates in bohr
s                   x[bohr]                   y[bohr]                   z[bohr]                      q[e]
+        3.7309238769000554        1.9737973733899161       -2.1879554308759692        0.8828902180470373
+        3.8629872669339358        1.1824584307587829       -1.4490933810479421        0.2864455235665361
-        3.7547303913313761        1.8709025610493883       -2.1224372240220752       -0.9877732520754967
+        6.3168912664287920       -0.7046894700105975        0.1240796443749332        0.0627311560329842
+        3.8831251132738114       -0.4927984633007330        0.2813109752706109        0.3609079757556989
+        2.7139667153330929        0.4589425037821763       -0.6371054711521841        0.3675619073655348
-        3.2362631555319883       -0.0031825855745571       -0.1818119475362213       -0.9672186380826908
