8
s                      x[A]                      y[A]                      z[A]                      q[e]
N        1.8796660290263341        1.1593686398827656       -1.1829879318091430        0.9960741678571451
O        1.8755025158031147        1.1448846016941747       -1.1811584723580260       -0.9579842871357311
N        3.3467074264329937       -0.3509288857660195       -0.0492354823566440        0.0617260652272423
O        2.7012312971694263       -0.3209666374040783       -0.0501407998624165       -0.3041522361274855
O        1.6822884546969137       -0.3113230759985091       -0.3966625174399595       -0.1511923192237549
N        2.5715828585376461       -0.3051890279037541        0.0384949000162846        0.4638764558137968
N        1.6438020823513093        0.3697210007126473       -0.5071312127275321        0.2845937886910852
O        1.7511005792834102        0.1265287819443391        0.0086222993755141       -0.3873967444926940

        RMSE         1.506029743E-01 kcal/mol
         MAE         9.033642778E-02 kcal/mol
     max. AE         1.835310051E+00 kcal/mol

Coordinates in bohr
s                   x[bohr]                   y[bohr]                   z[bohr]                      q[e]
+        3.5520540021866358        2.1908892078229707       -2.2355232008410613        0.9960741678571451
-        3.5441861024750292        2.1635183424558617       -2.2320660235208196       -0.9579842871357311
+        6.3243604579941604       -0.6631594836098529       -0.0930415773088681        0.0617260652272423
-        5.1045873531654031       -0.6065390401028365       -0.0947523794513608       -0.3041522361274855
-        3.1790644433968356       -0.5883153501722755       -0.7495835221961629       -0.1511923192237549
+        4.8595873115581121       -0.5767236792328023        0.0727448182576600        0.4638764558137968
+        3.1063357401012497        0.6986714341771019       -0.9583391017263290        0.2845937886910852
-        3.3091005129761975        0.2391047448625742        0.0162937843914276       -0.3873967444926940
