1
s                      x[A]                      y[A]                      z[A]                      q[e]
O        1.6597346916054301       -0.1990476321871456        0.1151085886630737       -0.0834130707590539

        RMSE         2.905356016E+00 kcal/mol
         MAE         2.479680229E+00 kcal/mol
     max. AE         9.158846544E+00 kcal/mol

Coordinates in bohr
s                   x[bohr]                   y[bohr]                   z[bohr]                      q[e]
-        3.1364440080554727       -0.3761455107545695        0.2175237072611892       -0.0834130707590539
