4
s                      x[A]                      y[A]                      z[A]                      q[e]
O        1.5787844983906874        0.1601147057419207       -0.0831221521279548       -0.9999999231904235
N        2.0691612276995337       -0.3660325421783998       -0.0219926776434156        0.5180155613016968
N        1.5304189957699963        0.3093560256233855       -0.2646099713157039        0.8389312253616135
O        1.8679221063899623       -0.4233291082334387       -0.1442529572340771       -0.4403599342319406

        RMSE         9.653264076E-02 kcal/mol
         MAE         6.294352351E-02 kcal/mol
     max. AE         7.617078680E-01 kcal/mol

Coordinates in bohr
s                   x[bohr]                   y[bohr]                   z[bohr]                      q[e]
-        2.9834703130767144        0.3025729425105000       -0.1570781024804762       -0.9999999231904235
+        3.9101480297682025       -0.6917012577222665       -0.0415601375115349        0.5180155613016968
+        2.8920727592034954        0.5845981636883129       -0.5000403758519321        0.8389312253616135
-        3.5298612047653286       -0.7999760754954937       -0.2725985819597863       -0.4403599342319406
