4
s                      x[A]                      y[A]                      z[A]                      q[e]
N       -1.6513757152940842       -1.3670815290059977       -0.2691735499625533        0.2180242972163776
O       -1.1554754601891157       -0.6013973254038310       -0.2953068519154134       -0.5889429351112569
N       -1.1017175069648650       -0.5735711413838182       -0.1779142030573765        0.9999999356514804
O       -1.3356955621356641       -0.9786579974800721       -0.1663229706647125       -0.9999999968503210

        RMSE         8.446210196E-02 kcal/mol
         MAE         5.662391373E-02 kcal/mol
     max. AE         5.756878259E-01 kcal/mol

Coordinates in bohr
s                   x[bohr]                   y[bohr]                   z[bohr]                      q[e]
+       -3.1206478321378395       -2.5834096809934675       -0.5086642896464650        0.2180242972163776
-       -2.1835321644447787       -1.1364762375960822       -0.5580490730912628       -0.5889429351112569
+       -2.0819443557857724       -1.0838923706816668       -0.3362091176075335        0.9999999356514804
-       -2.5240987994258441       -1.8493955857263336       -0.3143048629288633       -0.9999999968503210
