11
s                      x[A]                      y[A]                      z[A]                      q[e]
N       -1.7788685086733553        0.7933592798437098       -0.0402924002888171        0.9071298422127080
O       -1.8566673555496673        1.0377167059006054        0.1291826541108726       -0.9989888861350997
O       -1.8122194666636264        0.8476396253239875       -0.2430094990257204       -0.3942577151874131
N       -1.8927886699832113        1.1841351836275655        0.1065179705642011        0.6419876096559183
N       -2.9919135828191075       -0.6638963943077049        0.0117955856952315        0.3448312776062336
N       -2.5102414706217013       -0.6692459770559427        0.0724298911971106        0.6416262031267729
O       -2.6530257744693286       -0.6084071049461275        0.0489334189234936       -0.9999999906853058
O       -1.6464294416792249       -0.1830108277050153        0.3385333828770039       -0.4610752900196506
N       -1.4116350306170125        0.0348991078675495       -0.1538539847143510        0.9994203849250073
N       -2.1217339172563796       -0.2008609223426332        0.0931249804683423        0.3206903651181097
O       -1.4620893519971401       -0.0540227878988884       -0.2694247232231483       -0.9998668868347388

        RMSE         7.425026578E-02 kcal/mol
         MAE         4.524905647E-02 kcal/mol
     max. AE         1.013094549E+00 kcal/mol

Coordinates in bohr
s                   x[bohr]                   y[bohr]                   z[bohr]                      q[e]
+       -3.3615742945942446        1.4992317579950665       -0.0761416014831823        0.9071298422127080
-       -3.5085928080669047        1.9610003699644116        0.2441198364292981       -0.9989888861350997
-       -3.4245984712175064        1.6018067449480240       -0.4592213990433225       -0.3942577151874131
+       -3.5768521996378495        2.2376911925748133        0.2012897918059187        0.6419876096559183
+       -5.6538972625654011       -1.2545823609205216        0.0222904264533556        0.3448312776062336
+       -4.7436688882415083       -1.2646916072001650        0.1368726576592479        0.6416262031267729
-       -5.0134921175276785       -1.1497228011308598        0.0924707601476984       -0.9999999906853058
-       -3.1113007296641770       -0.3458403423558288        0.6397353779622921       -0.4610752900196506
+       -2.6676035969684295        0.0659497558924791       -0.2907418944204985        0.9994203849250073
+       -4.0094960147093586       -0.3795721325344299        0.1759807085237763        0.3206903651181097
-       -2.7629484462227021       -0.1020882736625965       -0.5091389383190277       -0.9998668868347388
