4
s                      x[A]                      y[A]                      z[A]                      q[e]
N       -1.7192794071682305        1.1249134147644682       -0.0031720351454772        0.1521790553649335
N       -2.8857399775623067       -0.6474677333648207       -0.0056057967773219        0.1438791069807607
O       -1.8814415325548846       -0.3113774769548090       -0.4895572366782653       -0.1424448791480674
O       -1.8671979226129047       -0.2473884178675289        0.5186523998254814       -0.1521163694150853

        RMSE         3.006551332E-01 kcal/mol
         MAE         1.947195336E-01 kcal/mol
     max. AE         3.067373954E+00 kcal/mol

Coordinates in bohr
s                   x[bohr]                   y[bohr]                   z[bohr]                      q[e]
+       -3.2489672126874520        2.1257782687583933       -0.0059942776852787        0.1521790553649335
+       -5.4532582268775780       -1.2235366911304648       -0.0105934206241125        0.1438791069807607
-       -3.5554092175903804       -0.5884181530806454       -0.9251291000578592       -0.1424448791480674
-       -3.5284926957621900       -0.4674963563799475        0.9801109899816114       -0.1521163694150853
