7
s                      x[A]                      y[A]                      z[A]                      q[e]
N       -1.9429384479704443        1.3886872584644514        0.0136269494856781        0.0868094286360650
N       -3.2014387717993049       -0.8204833003789691       -0.0452957748929063        0.0572415579291212
N       -1.8249735682092150       -0.5848601921535918        0.0491986808532006        0.3137078698160027
O       -1.7188287956101538       -0.1906935564406483        0.0174812746815117       -0.9999999977444155
N       -2.3335301608809060       -0.1106703847295264        0.0095817931097453        0.2425368624415837
N       -1.4230106252907251        0.1702229492192248        0.0113225536793592        0.7409029161079415
O       -1.6031898813595751        0.0303449471067760        0.0411263409249430       -0.4397017234037570

        RMSE         1.615261492E-01 kcal/mol
         MAE         1.030592897E-01 kcal/mol
     max. AE         1.441983090E+00 kcal/mol

Coordinates in bohr
s                   x[bohr]                   y[bohr]                   z[bohr]                      q[e]
+       -3.6716215452862340        2.6242385924106815        0.0257512024533801        0.0868094286360650
+       -6.0498424861227686       -1.5504887282280007       -0.0855966091879818        0.0572415579291212
+       -3.4487002301149472       -1.1052255848529278        0.0929720325463549        0.3137078698160027
-       -3.2481156802537212       -0.3603585955623599        0.0330348214719572       -0.9999999977444155
+       -4.4097329095604572       -0.2091367173378551        0.0181069647682176        0.2425368624415837
+       -2.6891003554159632        0.3216747542920504        0.0213965254947838        0.7409029161079415
-       -3.0295898028748249        0.0573436393233106        0.0777175208903502       -0.4397017234037570
