2
s                      x[A]                      y[A]                      z[A]                      q[e]
N        0.4552389063563632        0.3881240417630826       -0.2379734276530198        0.9999999988926751
O        0.5076285091741797        0.2701658238997898       -0.4647937199209517       -0.5194301099500707

        RMSE         1.025416339E+00 kcal/mol
         MAE         7.906481983E-01 kcal/mol
     max. AE         5.826684263E+00 kcal/mol

Coordinates in bohr
s                   x[bohr]                   y[bohr]                   z[bohr]                      q[e]
+        0.8602768546664692        0.7334481416379823       -0.4497046034006599        0.9999999988926751
-        0.9592788558136562        0.5105394156292716       -0.8783328354833511       -0.5194301099500707
