1
s                      x[A]                      y[A]                      z[A]                      q[e]
O        2.2689547037634696       -0.2675254902123907       -0.0228621103880775       -0.0082487640239518

        RMSE         3.368588998E+00 kcal/mol
         MAE         2.650821509E+00 kcal/mol
     max. AE         1.191777888E+01 kcal/mol

Coordinates in bohr
s                   x[bohr]                   y[bohr]                   z[bohr]                      q[e]
-        4.2877029811822558       -0.5055499080802672       -0.0432031272834508       -0.0082487640239518
