1
s                      x[A]                      y[A]                      z[A]                      q[e]
O       -0.7749226524038153       -1.3878234500375872        0.0998142157938379       -0.0294559560486414

        RMSE         1.698403403E+00 kcal/mol
         MAE         1.331287765E+00 kcal/mol
     max. AE         6.798128061E+00 kcal/mol

Coordinates in bohr
s                   x[bohr]                   y[bohr]                   z[bohr]                      q[e]
-       -1.4643915814565653       -2.6226062310590454        0.1886215312777008       -0.0294559560486414
