2
s                      x[A]                      y[A]                      z[A]                      q[e]
N        0.4925496943316732        0.8165397022694320       -0.0104668508691856        0.6764833500191002
O        0.4839310115995699        1.1109619648253017       -0.0166871224504168       -0.9999999999933858

        RMSE         8.298174583E-01 kcal/mol
         MAE         6.170382451E-01 kcal/mol
     max. AE         4.163019701E+00 kcal/mol

Coordinates in bohr
s                   x[bohr]                   y[bohr]                   z[bohr]                      q[e]
+        0.9307840254648304        1.5430364078521022       -0.0197794815387710        0.6764833500191002
-        0.9144970755389425        2.0994138493203334       -0.0315340912532666       -0.9999999999933858
