3
s                      x[A]                      y[A]                      z[A]                      q[e]
N       -3.0559333378864912       -0.6708404519876423       -0.0007961007992331        0.3655572104453317
N       -2.5044977030132651       -0.6578121120158846        0.0541191220281728        0.6201812012533739
O       -2.7082195142275394       -0.5987971889900914        0.0265537626771564       -0.9999999984515167

        RMSE         1.496599675E-01 kcal/mol
         MAE         1.042351986E-01 kcal/mol
     max. AE         8.454368464E-01 kcal/mol

Coordinates in bohr
s                   x[bohr]                   y[bohr]                   z[bohr]                      q[e]
+       -5.7748770662616469       -1.2677047281349856       -0.0015044124788087        0.3655572104453317
+       -4.7328147405332883       -1.2430847337190085        0.1022703187834785        0.6201812012533739
-       -5.1177931695104899       -1.1315626918852844        0.0501793390602294       -0.9999999984515167
