3
s                      x[A]                      y[A]                      z[A]                      q[e]
N        0.4894143923677979        0.8166159829218631       -0.0160195189953176        0.9999999992233107
O        0.5195504340878420        1.0417606064413569       -0.1139506400070737       -0.9999999964217706
O        0.3722536306093971        1.0542230316338663        0.2743499170305160       -0.3235166527758258

        RMSE         5.225854779E-01 kcal/mol
         MAE         3.452146935E-01 kcal/mol
     max. AE         3.243040313E+00 kcal/mol

Coordinates in bohr
s                   x[bohr]                   y[bohr]                   z[bohr]                      q[e]
+        0.9248591634324961        1.5431805573938684       -0.0302725035627195        0.9999999992233107
-        0.9818080287887503        1.9686422344650230       -0.2153355014340072       -0.9999999964217706
-        0.7034574110591056        1.9921928049378717        0.5184462057297536       -0.3235166527758258
