1
s                      x[A]                      y[A]                      z[A]                      q[e]
N       -1.8580388727133250        0.7848944358796627        0.1247862430894961        0.1397732355460284

        RMSE         1.062961645E+00 kcal/mol
         MAE         7.678537348E-01 kcal/mol
     max. AE         5.342791779E+00 kcal/mol

Coordinates in bohr
s                   x[bohr]                   y[bohr]                   z[bohr]                      q[e]
+       -3.5111845998825824        1.4832355212082826        0.2358118236639521        0.1397732355460284
