1
s                      x[A]                      y[A]                      z[A]                      q[e]
O       -2.1552475120586916       -0.0743775420968543       -0.0874353079446358       -0.1069845828764770

        RMSE         2.648971082E+00 kcal/mol
         MAE         2.066729000E+00 kcal/mol
     max. AE         1.022000018E+01 kcal/mol

Coordinates in bohr
s                   x[bohr]                   y[bohr]                   z[bohr]                      q[e]
-       -4.0728275303652950       -0.1405531844477650       -0.1652287857104287       -0.1069845828764770
