1
s                      x[A]                      y[A]                      z[A]                      q[e]
N       -1.5822564893573436       -0.0784414886383318       -0.2581948918073652        0.2732710234260263

        RMSE         1.211871057E+00 kcal/mol
         MAE         8.569778541E-01 kcal/mol
     max. AE         8.327584658E+00 kcal/mol

Coordinates in bohr
s                   x[bohr]                   y[bohr]                   z[bohr]                      q[e]
+       -2.9900314251137585       -0.1482329303996590       -0.4879176325081352        0.2732710234260263
