3
s                      x[A]                      y[A]                      z[A]                      q[e]
N        0.4882707877504354       -0.4318803377372719       -0.1909852869939655        0.6545837420322724
O        0.7770009154820616       -0.6224845372443478       -0.2809282641511024       -0.9999999942130393
N        1.0008879369234354       -1.2500164130173530       -0.6565689071821258        0.3572379066635664

        RMSE         3.555957173E-01 kcal/mol
         MAE         2.443589108E-01 kcal/mol
     max. AE         3.424824546E+00 kcal/mol

Coordinates in bohr
s                   x[bohr]                   y[bohr]                   z[bohr]                      q[e]
+        0.9226980639098719       -0.8161355572936730       -0.3609098864105578        0.6545837420322724
-        1.4683189294911017       -1.1763252927241705       -0.5308774801458561       -0.9999999942130393
+        1.8914040830598027       -2.3621886729299746       -1.2407354170653591        0.3572379066635664
