4
s                      x[A]                      y[A]                      z[A]                      q[e]
N        0.5895837218210316       -0.2267937444590100       -0.1433249223386807        0.3597003841380772
N        1.3673348096786506       -0.7657198326990863       -0.3986905416822055        0.5359958932418892
O        1.1389516824977366       -0.5723700703508474       -0.2870816995768056       -0.9999999997314932
N        0.8325802926105620       -1.6045471652163301       -0.8776000441782141        0.1161253768343263

        RMSE         2.163019616E-01 kcal/mol
         MAE         1.441558122E-01 kcal/mol
     max. AE         2.165593336E+00 kcal/mol

Coordinates in bohr
s                   x[bohr]                   y[bohr]                   z[bohr]                      q[e]
+        1.1141517622698640       -0.4285780639945978       -0.2708448501726192        0.3597003841380772
+        2.5838883120976535       -1.4470007726326608       -0.7534159325897969        0.5359958932418892
-        2.1523067500501223       -1.0816226753721314       -0.5425057878311250       -0.9999999997314932
+        1.5733487304875022       -3.0321546976385974       -1.6584237311865153        0.1161253768343263
