5
s                      x[A]                      y[A]                      z[A]                      q[e]
N        0.8896349235381372       -0.3928394392211444       -0.0652114817968789        0.8964792276995657
N        1.3868211925765737       -0.6707882481880090       -0.4440600574133404        0.7312762746606563
O        1.2624867627333187       -0.4953767148514208       -0.4246748791564502       -0.9999999566167823
O        1.0320452599306031       -0.5170860953719421        0.0861619867808999       -0.6755056526326124
N        0.8793008227693306       -1.8327360055359088       -1.0609946876211183        0.0595717613719723

        RMSE         1.454423912E-01 kcal/mol
         MAE         9.240880074E-02 kcal/mol
     max. AE         1.922269942E+00 kcal/mol

Coordinates in bohr
s                   x[bohr]                   y[bohr]                   z[bohr]                      q[e]
+        1.6811663571296953       -0.7423589514063993       -0.1232318408313796        0.8964792276995657
+        2.6207122389505333       -1.2676060772509703       -0.8391518917662925        0.7312762746606563
-        2.3857542185818308       -0.9361263199982027       -0.8025192139675901       -0.9999999566167823
-        1.9502828903457758       -0.9771511035353371        0.1628225574412185       -0.6755056526326124
+        1.6616377369237676       -3.4633691107284297       -2.0049893801695946        0.0595717613719723
