7
s                      x[A]                      y[A]                      z[A]                      q[e]
N        0.7903557735248428       -0.0421930377378197       -0.0935376749572564        0.4521697715233067
N        1.3919052249334787       -0.7141493023355149       -0.3189579545125417        0.3706149461034380
N        0.3740689210835512       -0.7721146731871832       -0.0874395645694971        0.1076767807725648
O        1.0788696381881120       -0.3882725084576125       -0.1864289704798769       -0.9999989989503685
O        1.1313201167759679       -1.4203276033373242       -0.9507439068957432       -0.5459417010248715
N        1.0931138246463226       -1.4541703247228492       -0.8520115162137331        0.9255135078505878
O        1.0945688847244586       -1.4802034042869467       -0.5804590422782985       -0.2982126517918580

        RMSE         1.211517483E-01 kcal/mol
         MAE         7.604228206E-02 kcal/mol
     max. AE         1.113226692E+00 kcal/mol

Coordinates in bohr
s                   x[bohr]                   y[bohr]                   z[bohr]                      q[e]
+        1.4935559536363259       -0.0797332857255860       -0.1767605880813098        0.4521697715233067
+        2.6303196677180494       -1.3495465941009037       -0.6027431795649396        0.3706149461034380
+        0.7068878128934092       -1.4590852697711529       -0.1652368295656353        0.1076767807725648
-        2.0387681412473100       -0.7337287030293959       -0.3522996960580295       -0.9999989989503685
-        2.1378851809275474       -2.6840301787354446       -1.7966455994807309       -0.5459417010248715
+        2.0656857525332830       -2.7479836534942619       -1.6100684213800274        0.9255135078505878
-        2.0684354175770472       -2.7971790440726592       -1.0969086169515307       -0.2982126517918580
