10
s                      x[A]                      y[A]                      z[A]                      q[e]
N        1.7675524827179359        0.9079942101261426        0.8211221056737192        0.1937323012479156
N        2.8217646799836102       -0.5737453169365981        0.0810006617224575        0.1814760219900724
O        1.6534254475395491       -0.0496019943428196        0.1701869674896459       -0.4831092220423013
O        1.1151182097314816       -0.6868388345068671       -0.3282492019005332       -0.1435829290671473
N        1.0801627091410169       -1.6129275808855206       -0.8664675654231992        0.1406192764456684
O       -0.4892312242230094        1.4103775752652044       -0.1277210976861177       -0.2432809639909417
N        0.0020623779291745        0.1398361618119568       -0.0728385124599960        0.4671999806873718
O       -1.4758349955047083       -0.8755556261202865        0.2085968067718476       -0.6459747488716425
N       -2.4894430969037109       -0.2363240065223630        0.4222499023850997        0.2202827231097669
N       -1.4343546616362255       -1.7299829829727051        0.2420731952929025        0.3126375604912377

        RMSE         6.399519403E-01 kcal/mol
         MAE         3.703501109E-01 kcal/mol
     max. AE         8.304912906E+00 kcal/mol

Coordinates in bohr
s                   x[bohr]                   y[bohr]                   z[bohr]                      q[e]
+        3.3401901047099298        1.7158603806398165        1.5516958952825708        0.1937323012479156
+        5.3323624356591761       -1.0842215147741712        0.1530690666362998        0.1814760219900724
-        3.1245212647122877       -0.0937341845844376        0.3216067586776259       -0.4831092220423013
-        2.1072680139033424       -1.2979372895466323       -0.6203010924921191       -0.1435829290671473
+        2.0412116912090847       -3.0479913880708627       -1.6373863952420595        0.1406192764456684
-       -0.9245130258039375        2.6652273507385211       -0.2413578950696080       -0.2432809639909417
+        0.0038973294533286        0.2642520482598030       -0.1376448399351399        0.4671999806873718
-       -2.7889239478701837       -1.6545603409710918        0.3941908354438388       -0.6459747488716425
+       -4.7043656580595865       -0.4465876491981756        0.7979366720091405        0.2202827231097669
+       -2.7105374772661985       -3.2691940395209862        0.4574520414180528        0.3126375604912377
