21
s                      x[A]                      y[A]                      z[A]                      q[e]
N       -1.9802768106531681        1.4269629014967360        0.0453715509543299        0.0707249461841811
O       -1.6271462732136042       -0.0991929383548281        0.2924546275293277       -0.3496602100029151
N       -1.4948588175095996        0.1392284906114805       -0.1821328134920763        0.9824851761690530
N       -3.0383871070902631       -0.6946876235971873        0.0109606474950554        0.1071394941056757
O       -1.5456948581150456        0.0313433494841074       -0.3288813610597592       -0.8194842575378962
N       -0.4810379777768424       -0.6535846971184033       -0.1262250813555812        0.3116552922920345
N       -0.7286791606613526       -2.0178070643100798       -0.0167681080456214        0.0918298459672651
N       -1.2417622307141538       -1.0122378278937605       -0.0398848345309535        0.5593901217632046
O       -0.9447105408350048       -0.8193596549733188       -0.0586417251791435       -0.9963138680841535
N        0.7188604887380511        0.8870620634680276       -0.0842705532577633        0.9989733053171830
O        0.6901623387233252        0.9835677977433761       -0.0999170123519663       -0.8354521971080898
N        0.5009566861598198        1.7360460610618407       -0.0066026714397109        0.2899344186932475
O        0.5131509316753373        1.3490138190988430        0.0023907478188463       -0.8678253524624289
N        0.5330330876344851       -0.4047469452583750       -0.0785301537515310        0.9219570073558310
O        0.6472919706304547       -0.2281919025731731       -0.2418385797801760       -0.9704818863270434
O        0.7852389269450075       -0.2455730678048363        0.4186831414434552       -0.3320651923316272
N        0.6013513553116712        0.3449691711939721       -0.0130024113180600        0.9769593393400061
O        1.5211168618964517       -0.5398455084502347       -0.5143276423933358       -0.1970026432733326
O        1.5223934558224423       -0.5025656976717664        0.4897965060130713       -0.1946060569702309
N        2.7728306843991763        0.0246054888313551        0.0001557886067947        0.1283355164991325
N        1.7299043449432685       -1.8900272056609986        0.0044538791976460        0.1235072004109040

        RMSE         4.925570913E-01 kcal/mol
         MAE         2.911855925E-01 kcal/mol
     max. AE         3.904352820E+00 kcal/mol

Coordinates in bohr
s                   x[bohr]                   y[bohr]                   z[bohr]                      q[e]
+       -3.7421808247295965        2.6965690750174875        0.0857398051909383        0.0707249461841811
-       -3.0748608224330889       -0.1874474870700465        0.5526591501532088       -0.3496602100029151
+       -2.8248737613188863        0.2631037161165747       -0.3441811359591145        0.9824851761690530
+       -5.7417194955227018       -1.3127693513438188        0.0207126219233401        0.1071394941056757
-       -2.9209399553658324        0.0592303463794728       -0.6214957001707558       -0.8194842575378962
+       -0.9090300339423012       -1.2350960773440884       -0.2385308339256816        0.3116552922920345
+       -1.3770040469784401       -3.8131027255601220       -0.0316871318483104        0.0918298459672651
+       -2.3465905289873277       -1.9128522685475240       -0.0753714138227053        0.5593901217632046
-       -1.7852441900113030       -1.5483653461491926       -0.1108168001129457       -0.9963138680841535
+        1.3584494461276779        1.6763043562380620       -0.1592482660979807        0.9989733053171830
-        1.3042178022925426        1.8586737635546788       -0.1888157886192032       -0.8354521971080898
+        0.9466709375589896        3.2806515965867162       -0.0124772407174360        0.2899344186932475
-        0.9697147218899099        2.5492666575547243        0.0045178586126552       -0.8678253524624289
+        1.0072865514363385       -0.7648608766540006       -0.1484004831804882        0.9219570073558310
-        1.2232045476994515       -0.4312201999104526       -0.4570086823542158       -0.9704818863270434
-        1.4838865149744516       -0.4640658419396258        0.7911964706744524       -0.3320651923316272
+        1.1363893667119380        0.6518972552827831       -0.0245709963616865        0.9769593393400061
-        2.8744942738001518       -1.0201601610294733       -0.9719383828758180       -0.1970026432733326
-        2.8769066866936974       -0.9497115286492773        0.9255812535708631       -0.1946060569702309
+        5.2398905857802331        0.0464976350742726        0.0002943978003086        0.1283355164991325
+        3.2690454351823051       -3.5716337883636444        0.0084166118794248        0.1235072004109040
