1
s                      x[A]                      y[A]                      z[A]                      q[e]
N        0.9297313861774136        1.3161554586907578        0.8999819759468048        0.0516705428287743

        RMSE         1.426503645E+00 kcal/mol
         MAE         1.062760598E+00 kcal/mol
     max. AE         5.991878605E+00 kcal/mol

Coordinates in bohr
s                   x[bohr]                   y[bohr]                   z[bohr]                      q[e]
+        1.7569376901175795        2.4871733554518562        1.7007194523878357        0.0516705428287743
