2
s                      x[A]                      y[A]                      z[A]                      q[e]
O        0.7148205314485577       -0.3847441519450214       -0.2046303406422540       -0.9583351005417935
N        0.7586491820190175       -0.2180210248830680       -0.1759445236423951        0.9999999986451261

        RMSE         2.832916987E+00 kcal/mol
         MAE         2.022654593E+00 kcal/mol
     max. AE         1.665079250E+01 kcal/mol

Coordinates in bohr
s                   x[bohr]                   y[bohr]                   z[bohr]                      q[e]
-        1.3508150332919886       -0.7270610755476231       -0.3866953007730022       -0.9583351005417935
+        1.4336391793185486       -0.4120000266206247       -0.3324869629582666        0.9999999986451261
