2
s                      x[A]                      y[A]                      z[A]                      q[e]
O        1.6089056999760916        1.5045883272148417        0.6410641520158097       -0.1298647844228426
N        1.2786512275922628        1.3828869836094300        0.6898618572108522        0.1815353272516169

        RMSE         8.712175218E-01 kcal/mol
         MAE         6.649351816E-01 kcal/mol
     max. AE         4.173136611E+00 kcal/mol

Coordinates in bohr
s                   x[bohr]                   y[bohr]                   z[bohr]                      q[e]
-        3.0403911346428343        2.8432598699967779        1.2114356761587441       -0.1298647844228426
+        2.4163006301298222        2.6132776614823112        1.3036499745282053        0.1815353272516169
