11
s                      x[A]                      y[A]                      z[A]                      q[e]
O        1.7374168668292138        0.7344568455127556        0.8313059352803338       -0.9883406260989556
N        1.7953879170355125        0.8744087929890370        0.9094780887244573        0.7131939345011218
O        1.6544728912808793        0.6066957623360473        0.7031367568430688       -0.2446302213729792
N        1.5526544694558071        0.6983001011835138        0.6954345516839302        0.3799902238438264
O        2.9836517232444950       -0.6800793743114861        0.3104083568875955       -0.9817153194997803
N        3.0410442960813318       -0.6536256713082081        0.3167549679046902        0.7491193603022386
N        2.9596915758821876       -0.7685369066148309        0.2052629427308230        0.2454205582646766
O        1.5352761126221068       -0.3066443824302590        0.5041734767877922       -0.6428987613730841
N        2.0179300504478261       -0.4347409224014150        0.2143719758923838        0.2370506552479877
N        1.5946639389318804       -0.0049438700907715        0.4935329950678305        0.8479797992005160
O        1.6005823022755228       -0.0266364161420900       -0.1749173344927517       -0.3113381593011787

        RMSE         7.831799936E-02 kcal/mol
         MAE         4.424917853E-02 kcal/mol
     max. AE         8.390690024E-01 kcal/mol

Coordinates in bohr
s                   x[bohr]                   y[bohr]                   z[bohr]                      q[e]
-        3.2832420440582495        1.3879222889867984        1.5709405441474014       -0.9883406260989556
+        3.3927914521533196        1.6523931404414289        1.7186645047940596        0.7131939345011218
-        3.1265006465152267        1.1464888322909819        1.3287358991760354       -0.2446302213729792
+        2.9340917147395023        1.3195959446163310        1.3141808408631752        0.3799902238438264
-        5.6382846106823914       -1.2851637610214288        0.5865867815709266       -0.9817153194997803
+        5.7467408549794037       -1.2351735073410322        0.5985801382180489        0.7491193603022386
+        5.5930064942420197       -1.4523242708085891        0.3878907454667903        0.2454205582646766
-        2.9012513798133304       -0.5794739007033418        0.9527497908487970       -0.6428987613730841
+        3.8133351356776899       -0.8215412788675883        0.4051043234098534        0.2370506552479877
+        3.0134781067250609       -0.0093425604714005        0.9326421945551289        0.8479797992005160
-        3.0246621925554940       -0.0503355314722740       -0.3305458567863985       -0.3113381593011787
