3
s                      x[A]                      y[A]                      z[A]                      q[e]
N        1.7436406388796628        0.8520043055664877        0.7561485841453726        0.2077654460688911
N        2.7884036452279952       -0.4824618320168466        0.0929985432327491        0.1989782554435167
O        1.8505197103624074       -0.0465104497779311        0.1876825562899860       -0.4029122577980184

        RMSE         2.691934113E-01 kcal/mol
         MAE         1.676365658E-01 kcal/mol
     max. AE         2.427493685E+00 kcal/mol

Coordinates in bohr
s                   x[bohr]                   y[bohr]                   z[bohr]                      q[e]
+        3.2950032687008775        1.6100547952315463        1.4289137341874574        0.2077654460688911
+        5.2693192167091842       -0.9117207284984811        0.1757417767764453        0.1989782554435167
-        3.4969754423464945       -0.0878920120521506        0.3546686299138960       -0.4029122577980184
