4
s                      x[A]                      y[A]                      z[A]                      q[e]
N        1.8879687302596850        1.0418106064042720        0.8990603872342640        0.1076491644482721
N        2.8939549251963719       -0.5275151714851007        0.0901129783693179        0.1453408220028580
N        1.4477109695890755        0.2859395115900495        0.3376770037815129        0.7508414525668428
O        1.5403042445697264        0.1479916512011852        0.2621737728352066       -0.9999999953035836

        RMSE         2.296820417E-01 kcal/mol
         MAE         1.433842775E-01 kcal/mol
     max. AE         2.094088898E+00 kcal/mol

Coordinates in bohr
s                   x[bohr]                   y[bohr]                   z[bohr]                      q[e]
+        3.5677438336191702        1.9687367207012154        1.6989779021208202        0.1076491644482721
+        5.4687822280409391       -0.9968592011307613        0.1702888494673163        0.1453408220028580
+        2.7357772413443593        0.5403473653523680        0.6381170560122468        0.7508414525668428
-        2.9107531721169959        0.2796636896245220        0.4954366279365358       -0.9999999953035836
