6
s                      x[A]                      y[A]                      z[A]                      q[e]
O        1.7127151846407562        0.9015240604443542        1.2036949642735542       -0.6816543311186224
N        1.7234676905159558        0.9401850751252189        1.1792605369185964        0.7303047691204915
N        3.1069982873727988       -0.4946703737159658        0.1093119021689845        0.1003592688245076
N        1.9710481647344031       -0.5298909614910071        0.0485206579453120        0.3470165725354893
N        1.6798904536977044        0.1587637987252161        0.4648268078315428        0.5073714160047033
O        1.7669629696228972       -0.1827012167093422        0.2031097588073603       -0.9995662516521799

        RMSE         1.631570260E-01 kcal/mol
         MAE         1.062004809E-01 kcal/mol
     max. AE         1.381997854E+00 kcal/mol

Coordinates in bohr
s                   x[bohr]                   y[bohr]                   z[bohr]                      q[e]
-        3.2365626298839651        1.7036335697505183        2.2746538210697622       -0.6816543311186224
+        3.2568819211504687        1.7766922992296570        2.2284794453364976        0.7303047691204915
+        5.8713758354011070       -0.9347915287010479        0.2065695573522202        0.1003592688245076
+        3.7247412114343068       -1.0013487935735241        0.0916907549436591        0.3470165725354893
+        3.1745328782597562        0.3000200982279692        0.8783953625724319        0.5073714160047033
-        3.3390760864129359       -0.3452552623685763        0.3838218175537070       -0.9995662516521799
