7
s                      x[A]                      y[A]                      z[A]                      q[e]
N        1.8202495442536333        1.2575309107229651        1.0161434829493043        0.0659815421371645
O        2.9648341042833666       -0.6848874533339446        0.2557889278519092       -0.4745407777382753
N        3.0451817388997040       -0.6770226644380130        0.2322230074318386        0.4804226523309877
O        1.5386010241222099       -0.3825388972767994        0.4189228582630949       -0.2949907692361344
N        2.1431324027424421       -0.5155614666295589        0.1328590799290717        0.2526033578736102
N        1.4841267331661647        0.0713277270234236        0.1305284580386318        0.9662193956921820
O        1.5411949894601178        0.0324110741697193       -0.0082246631083352       -0.9918639573451453

        RMSE         1.038030284E-01 kcal/mol
         MAE         5.951264923E-02 kcal/mol
     max. AE         1.296070361E+00 kcal/mol

Coordinates in bohr
s                   x[bohr]                   y[bohr]                   z[bohr]                      q[e]
+        3.4397731186287959        2.3763890155639626        1.9202328869430114        0.0659815421371645
-        5.6027244645126366       -1.2942497135634343        0.4833710195646003       -0.4745407777382753
+        5.7545594887658691       -1.2793874165155816        0.4388378840763327        0.4804226523309877
-        2.9075345519399103       -0.7228937481877963        0.7916494698112373       -0.2949907692361344
+        4.0499332917776005       -0.9742699727692318        0.2510672743462566        0.2526033578736102
+        2.8045930611544803        0.1347898692256878        0.2466630372713283        0.9662193956921820
-        2.9124364360074866        0.0612480536126700       -0.0155423607489102       -0.9918639573451453
