4
s                      x[A]                      y[A]                      z[A]                      q[e]
O       -0.6230156441689122        1.3911755424485648       -0.1262448581567147       -0.9999994709859656
N       -0.6144161667041298        0.8898343469398219       -0.0755109827140329        0.9400356380510129
N       -0.6552023476832121        1.5917082647389145       -0.1058486387187069        0.8381194477443796
O       -0.6583859789411101        1.2682111049625178       -0.0702049715295315       -0.9999999953478792

        RMSE         7.015434755E-02 kcal/mol
         MAE         4.594408951E-02 kcal/mol
     max. AE         6.027271833E-01 kcal/mol

Coordinates in bohr
s                   x[bohr]                   y[bohr]                   z[bohr]                      q[e]
-       -1.1773289393549313        2.6289407676630185       -0.2385682066634615       -0.9999994709859656
+       -1.1610782821244463        1.6815432127418863       -0.1426950767937025        0.9400356380510129
+       -1.2381529938782692        3.0078926919842717       -0.2000249379308875        0.8381194477443796
-       -1.2441691850401431        2.3965716576434097       -0.1326681688363788       -0.9999999953478792
