4
s                      x[A]                      y[A]                      z[A]                      q[e]
N       -1.9624223742520110        1.0533320155193504       -0.2595142449228572        0.9999999956467468
N       -2.4439895416092763        1.0176450830600954       -0.3352921121623393        0.3729434585391236
O       -2.1494242021064576        1.0842648348611394       -0.2007471909376241       -0.9069617338133660
O       -1.9514098793926982        1.0051005115004008       -0.4366881238626255       -0.4678669688247070

        RMSE         5.446139635E-02 kcal/mol
         MAE         3.718763756E-02 kcal/mol
     max. AE         4.619024691E-01 kcal/mol

Coordinates in bohr
s                   x[bohr]                   y[bohr]                   z[bohr]                      q[e]
+       -3.7084408298070048        1.9905090285080669       -0.4904108485591848        0.9999999956467468
+       -4.6184708871247508        1.9230704999023636       -0.6336102640131089        0.3729434585391236
-       -4.0618230694119202        2.0489635853523129       -0.3793572113270992       -0.9069617338133660
-       -3.6876302305648911        1.8993646952933338       -0.8252209563403674       -0.4678669688247070
