2
s                      x[A]                      y[A]                      z[A]                      q[e]
O       -1.2163772720373023       -1.3308489722182257        0.2410100951617772       -0.1946312751255511
O       -0.9752557723426549       -1.2844425732945457       -0.5311090661792011       -0.2093436401075001

        RMSE         1.358509010E+00 kcal/mol
         MAE         9.921494953E-01 kcal/mol
     max. AE         6.988789459E+00 kcal/mol

Coordinates in bohr
s                   x[bohr]                   y[bohr]                   z[bohr]                      q[e]
-       -2.2986199093820137       -2.5149400718394803        0.4554430733262877       -0.1946312751255511
-       -1.8429663119994670       -2.4272446874049844       -1.0036506778263468       -0.2093436401075001
