3
s                      x[A]                      y[A]                      z[A]                      q[e]
N        1.1865483718370466       -0.1246896649332012        1.1745630785332295        0.6319367121307820
N        1.0789278763637817       -0.2030996859299352        1.7566188220661889        0.3449016239967698
O        1.0798862715872559       -0.1388828576178466        1.3825258763789889       -0.9999999999000465

        RMSE         1.534760538E-01 kcal/mol
         MAE         1.065454522E-01 kcal/mol
     max. AE         1.026200630E+00 kcal/mol

Coordinates in bohr
s                   x[bohr]                   y[bohr]                   z[bohr]                      q[e]
+        2.2422514573799166       -0.2356293173988531        2.2196025355024185        0.6319367121307820
+        2.0388781954493718       -0.3838027825740782        3.3195284805294332        0.3449016239967698
-        2.0406892999416852       -0.2624505644186845        2.6125952677148550       -0.9999999999000465
