13
s                      x[A]                      y[A]                      z[A]                      q[e]
O        1.5247199900747852       -1.8187078935337042       -0.0768378592444511       -0.9999992977995120
N        2.5580228084022685       -0.1904816749414195       -1.1971285126449196        0.0197673753098922
N        1.5295234869031171       -1.8792248942934895       -0.0774767335624567        0.9421551689729620
N        1.0127180461085972        0.1265382681923648        0.0873998028968093        0.3123197214465294
N        0.2245499446655305        0.5000531125079505       -0.0113084045013019        0.7752738165158253
O        0.3835376876491319        1.2005063666222031       -0.0021810485377217       -0.9999984402041884
O       -0.6440675677364551       -0.7049082898523954        0.5137400756660488       -0.4415449547415572
O       -0.6656685048859283       -0.7042332565646685       -0.5064275107062252       -0.4580652599945575
N       -1.0078125069443253       -0.7736694696658211       -0.0182066372433778        0.4017978960676056
N       -0.4115806089430036       -1.8829071847828451        0.0079463050620572        0.2084816720111648
N       -1.7836148173433735       -0.3518714189067095       -0.0289583648561491        0.5583479943160528
N       -2.5837924932718583       -0.9839337454204394       -0.0290050563077553        0.6020935393137389
O       -2.4067156513185646       -0.8319645472644481       -0.0301156653818668       -0.9206292312139558

        RMSE         9.753178193E-01 kcal/mol
         MAE         6.125977762E-01 kcal/mol
     max. AE         7.939661969E+00 kcal/mol

Coordinates in bohr
s                   x[bohr]                   y[bohr]                   z[bohr]                      q[e]
-        2.8813031992521219       -3.4368598209870149       -0.1452025100384906       -0.9999992977995120
+        4.8339625305547713       -0.3599581975577662       -2.2622450258755764        0.0197673753098922
+        2.8903804927021746       -3.5512203783571326       -0.1464098075281098        0.9421551689729620
+        1.9137597494540215        0.2391226712733011        0.1651616908939653        0.3123197214465294
+        0.4243378969045626        0.9449634308227768       -0.0213697874233551        0.7752738165158253
-        0.7247811884482488        2.2686282447844310       -0.0041215844026242       -0.9999984402041884
-       -1.2171113093116586       -1.3320836113858709        0.9708280426808140       -0.4415449547415572
-       -1.2579311645773907       -1.3308079833464996       -0.9570092976321276       -0.4580652599945575
+       -1.9044896239358406       -1.4620234092966047       -0.0344055580555446        0.4017978960676056
+       -0.7777746294514358       -3.5581788988963927        0.0150163402766272        0.2084816720111648
+       -3.3705435180874650       -0.6649406131099246       -0.0547233786192047        0.5583479943160528
+       -4.8826601772976508       -1.8593653044405760       -0.0548116126751406        0.6020935393137389
-       -4.5480334428449440       -1.5721851404203218       -0.0569103596576596       -0.9206292312139558
