3
s                      x[A]                      y[A]                      z[A]                      q[e]
N        3.1725127432248335       -0.4484983203990464       -0.1738402581324940        0.2757111318695060
O        2.8593854578810549       -0.3273899607366472       -0.2795492172053705       -0.9999999973784697
N        2.7177898556200457       -0.2409211034768461       -0.2956568050452492        0.8283263654498156

        RMSE         3.634174885E-01 kcal/mol
         MAE         2.560420168E-01 kcal/mol
     max. AE         2.130207020E+00 kcal/mol

Coordinates in bohr
s                   x[bohr]                   y[bohr]                   z[bohr]                      q[e]
+        5.9951802142198503       -0.8475389932820336       -0.3285104774493066        0.2757111318695060
-        5.4034554025120238       -0.6186773620166548       -0.5282714591042735       -0.9999999973784697
+        5.1358784936694590       -0.4552749034143248       -0.5587103886633992        0.8283263654498156
