1
s                      x[A]                      y[A]                      z[A]                      q[e]
O       -1.4378877098264877       -1.1432067338571588       -0.2561414039184782       -0.3709186990937200

        RMSE         1.776676243E+00 kcal/mol
         MAE         1.413044738E+00 kcal/mol
     max. AE         6.621425081E+00 kcal/mol

Coordinates in bohr
s                   x[bohr]                   y[bohr]                   z[bohr]                      q[e]
-       -2.7172139707338387       -2.1603476317691870       -0.4840371027961943       -0.3709186990937200
