10
s                      x[A]                      y[A]                      z[A]                      q[e]
N        0.0514622414683450       -0.0100335336929338        0.0226613328557922        0.4401946152841295
N       -1.0299593046736339        0.2889838525230584       -0.0025547789970824        0.5641149852175256
N        1.0362928590989291       -0.3675520303261607        0.0399966577934701        0.3438881929957536
N        0.2937048713194745       -0.8393429337360941       -0.0664374776957930        0.8369726370479875
O        0.4862167290934225       -0.6798596888796391        0.2823440492477017       -0.9136248872683532
O        0.4590452202836936       -0.7629949268259093       -0.3951999306312386       -0.7051720628438606
O        2.1504646322438141        0.1722603562992235       -0.9025626756990509       -0.3044514581272592
N        2.0752697381622789        0.4155394816234196       -0.9289937478307241        0.3136595290284374
O       -0.7952584689588534        1.2529243585157708        0.0178343876299831       -0.4947592026067456
O        0.0699728390364971        1.3049067058286006       -0.0136881956350511       -0.3104924765358958

        RMSE         1.531023881E-01 kcal/mol
         MAE         9.766130810E-02 kcal/mol
     max. AE         2.229784483E+00 kcal/mol

Coordinates in bohr
s                   x[bohr]                   y[bohr]                   z[bohr]                      q[e]
+        0.0972495421773507       -0.0189606307501983        0.0428237127352863        0.4401946152841295
+       -1.9463410062001449        0.5461003359482755       -0.0048278326155575        0.5641149852175256
+        1.9583096894646341       -0.6945726741724138        0.0755827291633170        0.3438881929957536
+        0.5550217685066405       -1.5861282700995158       -0.1255486373112618        0.8369726370479875
-        0.9188164556024918       -1.2847486157214849        0.5335529262309335       -0.9136248872683532
-        0.8674697455366396       -1.4418514468147048       -0.7468196336929731       -0.7051720628438606
-        4.0637891974241960        0.3255248956793166       -1.7055962681316177       -0.3044514581272592
+        3.9216914415772850        0.7852558145829791       -1.7555437556627009        0.3136595290284374
-       -1.5028207052831386        2.3676838935097422        0.0337021082359209       -0.4947592026067456
-        0.1322295019997238        2.4659162932894194       -0.0258669409019338       -0.3104924765358958
