11
s                      x[A]                      y[A]                      z[A]                      q[e]
N        0.0675792404700095        0.0634068532794956        0.0865351413511595        0.2903199036087860
N       -1.0402423485616403        0.2364298206672396        0.0029147896337184        0.4712303721178775
N        0.9895913583965289       -0.3720672685819140        0.0286969878185518        0.3423951102737835
N        0.2143676564978062       -0.6790239243482226       -0.0521199875188439        0.9941763885657158
O        0.4476004053389565       -0.6363245265745733        0.3043914252169480       -0.9426408105995197
O        0.4362859023053022       -0.7064541674125431       -0.4222745743739786       -0.6953076720361685
O        2.1404602162706508        0.1166208237488271       -0.8630692968872952       -0.2839046218763970
N        2.0579243396488143        0.3907642236978510       -0.8917129199116506        0.2918959118549287
O        0.0578220790659274        1.4036763978939688        0.0015173166889360       -0.2900928857262462
O       -0.6858934130150924        1.5502255114646311        0.0426425895788316       -0.8366509128499452
N       -0.6120086126341808        1.7412457342572945        0.0627372777181486        0.4289090888589043

        RMSE         1.431243000E-01 kcal/mol
         MAE         9.364687306E-02 kcal/mol
     max. AE         1.438807626E+00 kcal/mol

Coordinates in bohr
s                   x[bohr]                   y[bohr]                   z[bohr]                      q[e]
+        0.1277062562547739        0.1198215871753343        0.1635277173814722        0.2903199036087860
+       -1.9657731428845402        0.4467876089521919        0.0055081541210513        0.4712303721178775
+        1.8700566434892216       -0.7031052378669775        0.0542294476026624        0.3423951102737835
+        0.4050961609370740       -1.2831692496517360       -0.0984925020728952        0.9941763885657158
-        0.8458421797345396       -1.2024790821375553        0.5752164285978093       -0.9426408105995197
-        0.8244608677552713       -1.3350048965980410       -0.7979832953110921       -0.6953076720361685
-        4.0448835911897616        0.2203814174105714       -1.6309645984084402       -0.2839046218763970
+        3.8889133888499137        0.7384373624160759       -1.6850932011653301        0.2918959118549287
-        0.1092678934391713        2.6525639607887705        0.0028673129876756       -0.2900928857262462
-       -1.2961507018540566        2.9295016493659372        0.0805828155842939       -0.8366509128499452
+       -1.1565286643000114        3.2904775548680081        0.1185562727440886        0.4289090888589043
