3
s                      x[A]                      y[A]                      z[A]                      q[e]
N       -0.8952601280539021       -0.2380491106992682       -0.0079907860539643        0.6235183041620631
O        0.1716573425530630       -0.7695824491323383        0.0095725831133735       -0.4399008084465649
O       -0.5952595214951719        1.6146916694131035        0.0584404593857240       -0.4132876235237791

        RMSE         1.702115391E+00 kcal/mol
         MAE         1.158520417E+00 kcal/mol
     max. AE         9.206986469E+00 kcal/mol

Coordinates in bohr
s                   x[bohr]                   y[bohr]                   z[bohr]                      q[e]
+       -1.6917964530641796       -0.4498476236304098       -0.0151003971691204        0.6235183041620631
-        0.3243853648491869       -1.4543000598191997        0.0180895603974584       -0.4399008084465649
-       -1.1248774691969521        3.0513250322490566        0.1104364628849598       -0.4132876235237791
