5
s                      x[A]                      y[A]                      z[A]                      q[e]
N       -0.6811970920345232       -0.1341334541965715       -0.0528363609168390        0.9174628769211295
O        0.1684566096826260       -0.4851634231229701       -0.0667232714187741       -0.7133152242702373
O        2.0605056543848641        0.1305301443632550       -0.9853524165396984       -0.9127413464440319
N        2.0207164645171098        0.2028453031569642       -0.9512927324009636        0.9958479452184970
O       -0.4890862380187767        1.4799650040977732       -0.0171296856618083       -0.5169243792336380

        RMSE         8.056336845E-01 kcal/mol
         MAE         5.141545347E-01 kcal/mol
     max. AE         7.870674056E+00 kcal/mol

Coordinates in bohr
s                   x[bohr]                   y[bohr]                   z[bohr]                      q[e]
+       -1.2872759414035391       -0.2534754926931621       -0.0998462515986696        0.9174628769211295
-        0.3183368563233105       -0.9168259957920271       -0.1260887091760711       -0.7133152242702373
-        3.8937913667446562        0.2466662239630248       -1.8620462043180723       -0.9127413464440319
+        3.8186006951407587        0.3833220688021285       -1.7976827293762634        0.9958479452184970
-       -0.9242390415859680        2.7967285330068639       -0.0323704145159996       -0.5169243792336380
