6
s                      x[A]                      y[A]                      z[A]                      q[e]
N       -0.7674086902356907        0.0455364323144746       -0.0161841036621438        0.7508830361928314
O        0.3828240888110550       -0.7062920414362871        0.4603225213152422       -0.2027639042351281
O        0.5985962584057014       -0.6189382029524632       -0.5077217044530934       -0.2459506555356958
O        2.1866425872615620        0.1452427687868652       -1.0233289680465445       -0.4560039138139941
N        2.0882771121285830        0.2455704638084552       -0.9592175452152736        0.5461839160475543
O       -0.4840403279024016        1.3752328914605669       -0.0007064476140170       -0.6220186064638484

        RMSE         6.284446072E-01 kcal/mol
         MAE         4.150599059E-01 kcal/mol
     max. AE         5.415510029E+00 kcal/mol

Coordinates in bohr
s                   x[bohr]                   y[bohr]                   z[bohr]                      q[e]
+       -1.4501922508417584        0.0860513858048046       -0.0305835235074709        0.7508830361928314
-        0.7234326820808383       -1.3346985229050947        0.8698834946660312       -0.2027639042351281
-        1.1311829881105591       -1.1696236921631891       -0.9594549693669887       -0.2459506555356958
-        4.1321556241868729        0.2744690547103700       -1.9338114858553541       -0.4560039138139941
+        3.9462718159850096        0.4640609210996338       -1.8126584551908280        0.5461839160475543
-       -0.9147036534123421        2.5988135235819430       -0.0013349925124752       -0.6220186064638484
