9
s                      x[A]                      y[A]                      z[A]                      q[e]
N        0.0732808786739826        0.0629299147287132        0.0811683650177705        0.3402197972893409
N       -1.0415432554194832        0.2274433225674174       -0.0257559670161497        0.4842585436109691
O        0.3972922669560396       -0.6531938338746024       -0.4465782934282865       -0.7544809205013681
O        0.3692182282119841       -0.6694587486260120        0.4571527099271673       -0.5563148218769648
N        0.2282912307587384       -0.5639768136742210       -0.0949267710304966        0.9662461631510588
O        2.0932482788475122        0.1293870988249957       -0.8610286655420112       -0.5384870556837131
N        2.0067509405726249        0.2600877634341266       -0.8258591606555591        0.6114522522941569
O       -0.7561004352007317        1.3159602189652617        0.0118357255405975       -0.4501613398029292
O        0.1032521997939381        1.2257717588110582       -0.0144711104624099       -0.3324027462888314

        RMSE         2.255528302E-01 kcal/mol
         MAE         1.406675206E-01 kcal/mol
     max. AE         2.247281857E+00 kcal/mol

Coordinates in bohr
s                   x[bohr]                   y[bohr]                   z[bohr]                      q[e]
+        0.1384807909267303        0.1189203039356827        0.1533859799347781        0.3402197972893409
+       -1.9682315005605933        0.4298055887165808       -0.0486717237568481        0.4842585436109691
-        0.7507735763091938       -1.2343574528607966       -0.8439106681538049       -0.7544809205013681
-        0.6977213318474369       -1.2650936871948797        0.8638934192732124       -0.5563148218769648
+        0.4314079029777096       -1.0657617189526372       -0.1793855992216828        0.9662461631510588
-        3.9556659596077770        0.2445061809467883       -1.6271083640428290       -0.5384870556837131
+        3.7922096796871592        0.4914946414733642       -1.5606476318394837        0.6114522522941569
-       -1.4288227458688563        2.4868044058418590        0.0223662797678157       -0.4501613398029292
-        0.1951183794615962        2.3163729164736484       -0.0273464355052021       -0.3324027462888314
