1
s                      x[A]                      y[A]                      z[A]                      q[e]
N       -0.5807078166866005        0.1514305987583697        0.0432769431966101        0.8046658119060623

        RMSE         1.219503370E+00 kcal/mol
         MAE         9.826823606E-01 kcal/mol
     max. AE         5.762259898E+00 kcal/mol

Coordinates in bohr
s                   x[bohr]                   y[bohr]                   z[bohr]                      q[e]
+       -1.0973787324502444        0.2861623586674130        0.0817815701885886        0.8046658119060623
