1
s                      x[A]                      y[A]                      z[A]                      q[e]
O        2.6300391476744807       -0.5273209090060488        0.1036009878779599       -0.0857735014000438

        RMSE         1.045708706E+00 kcal/mol
         MAE         8.270780133E-01 kcal/mol
     max. AE         4.712487001E+00 kcal/mol

Coordinates in bohr
s                   x[bohr]                   y[bohr]                   z[bohr]                      q[e]
-        4.9700536883373054       -0.9964920982489006        0.1957774934162206       -0.0857735014000438
