11
s                      x[A]                      y[A]                      z[A]                      q[e]
O        1.4967586459973470       -1.6420229597323477       -0.0802768621705309       -0.9999992977995120
N        2.5403634515682945       -0.1961749549617821       -1.2454197783541163        0.0199046227068640
N        1.4937959000755960       -1.7200776803779472       -0.0776467007958883        0.9354795482525443
N        0.5704169553441842        0.3179198780495167        0.0192393702029782        0.9940062050545957
O        0.4574820536433571        1.2217976073080430        0.0021220039495859       -0.9020630834569709
O       -0.5112114869265468       -0.8315082160711937        0.4738672882923473       -0.6511785817788242
O       -0.5241846928203628       -0.8613220097663858       -0.4608703489492974       -0.6596710624614871
N       -0.5557052275727170       -1.1625158075588511        0.0018562847105201        0.9973686983390415
N       -1.8729272135101753       -0.3926594305649856       -0.0266903201413089        0.7043445722649042
N       -2.5479886223790977       -1.0584549895950166       -0.0268221495242301        0.5618075866992762
O       -2.3522849177958687       -0.8612846029782583       -0.0278258059270225       -0.9999992078204322

        RMSE         1.069072232E+00 kcal/mol
         MAE         7.066236472E-01 kcal/mol
     max. AE         8.447850540E+00 kcal/mol

Coordinates in bohr
s                   x[bohr]                   y[bohr]                   z[bohr]                      q[e]
-        2.8284639168460717       -3.1029736856078047       -0.1517012837134294       -0.9999992977995120
+        4.8005911825868282       -0.3707169375517924       -2.3535022923176712        0.0199046227068640
+        2.8228651384746453       -3.2504757304271066       -0.1467309990495973        0.9354795482525443
+        1.0779318229180164        0.6007814993525383        0.0363571405099227        0.9940062050545957
-        0.8645157886979516        2.3088628585518731        0.0040100063018573       -0.9020630834569709
-       -0.9660497024792386       -1.5713227994425676        0.8954793946859051       -0.6511785817788242
-       -0.9905655085877262       -1.6276627042873819       -0.8709187388583530       -0.6596710624614871
+       -1.0501306865976512       -2.1968364928016659        0.0035078697137577        0.9973686983390415
+       -3.5393194864511099       -0.7420187843460473       -0.0504373952678646        0.7043445722649042
+       -4.8150006670790813       -2.0001900464588966       -0.0506865166968739        0.5618075866992762
-       -4.4451742636792728       -1.6275920157025878       -0.0525831524222137       -0.9999992078204322
