3
s                      x[A]                      y[A]                      z[A]                      q[e]
O       -0.5258001828738118        1.5233913270090291       -0.1396083600179628       -0.2067398517065172
O       -0.8486295707303891       -0.5279456946189633       -0.1095328600773569       -0.2936773747784805
N       -0.3861258152607084       -0.1980583424392102       -0.1340976559742078        0.5838445705319708

        RMSE         6.101973599E-01 kcal/mol
         MAE         4.167260762E-01 kcal/mol
     max. AE         5.371698237E+00 kcal/mol

Coordinates in bohr
s                   x[bohr]                   y[bohr]                   z[bohr]                      q[e]
-       -0.9936183423471459        2.8787923899448318       -0.2638215652582664       -0.2067398517065172
-       -1.6036774706452781       -0.9976727719444354       -0.2069871072842980       -0.2936773747784805
+       -0.7296720408118635       -0.3742760240722485       -0.2534078438571165        0.5838445705319708
