4
s                      x[A]                      y[A]                      z[A]                      q[e]
N       -0.5920781718948670        0.3979665568618829       -0.1116775118765109        0.9999999987640027
O       -0.5965316676514418        1.0929390673922583       -0.1229592605666847       -0.6233719888188338
O       -0.6349010217873998       -0.4419631100213808       -0.1054391162323422       -0.9999999977289047
N       -0.3948316205245692       -0.6168635763636400       -0.1259840639185863        0.7067993318307089

        RMSE         3.145220850E-01 kcal/mol
         MAE         2.096840228E-01 kcal/mol
     max. AE         2.534860366E+00 kcal/mol

Coordinates in bohr
s                   x[bohr]                   y[bohr]                   z[bohr]                      q[e]
+       -1.1188655897430411        0.7520477995603985       -0.2110399118191696        0.9999999987640027
-       -1.1272814770238559        2.0653555091846645       -0.2323593270598406       -0.6233719888188338
-       -1.1997890479515192       -0.8351892354959958       -0.1992510525894415       -0.9999999977289047
+       -0.7461236284621295       -1.1657032160977205       -0.2380753769783015        0.7067993318307089
