5
s                      x[A]                      y[A]                      z[A]                      q[e]
N       -0.6433833918725828       -0.4692181795174971        0.0139130702134306        0.9999999894954903
O       -0.6360169787478430        1.0463241990973045       -0.1129943660015242       -0.6555540103873958
N       -0.6759883579184388        0.3414211566685886       -0.0976318176753603        0.9999999988571647
O       -0.9166678526794672       -0.4069409415277655       -0.3349111155581699       -0.5122842880842351
O       -0.7577983673496779       -0.4379378888711186        0.2405975364729215       -0.7487343458340512

        RMSE         2.515117339E-01 kcal/mol
         MAE         1.501619059E-01 kcal/mol
     max. AE         2.381978682E+00 kcal/mol

Coordinates in bohr
s                   x[bohr]                   y[bohr]                   z[bohr]                      q[e]
+       -1.2158184043072913       -0.8866938523739755        0.0262918922676490        0.9999999894954903
-       -1.2018979009745552        1.9772661747329143       -0.2135284054626241       -0.6555540103873958
+       -1.2774328604638110        0.6451924795406622       -0.1844973965370638        0.9999999988571647
-       -1.7322511895757167       -0.7690069287234249       -0.6328902847764994       -0.5122842880842351
-       -1.4320313726099747       -0.8275826699275999        0.4546634503936724       -0.7487343458340512
