6
s                      x[A]                      y[A]                      z[A]                      q[e]
N       -0.2960948111602734        0.9271759124679824       -0.1189580692404703        0.1964163482426776
N       -0.6179879314502496        1.7866572522012163       -0.1318399174495035        0.2908983155197060
O       -0.5877733076587701        1.3738998414488064       -0.1243155719635491       -0.9999999997933573
N       -0.4024326766088122       -0.5857455483966607       -0.1129067087062879        0.5957198164172021
O       -0.6957132543041197       -0.3143431010419425       -0.0895597452906211       -0.9993823320045465
N       -0.6680831896491307        0.4317353164178109       -0.1032239403886498        0.9997751956652913

        RMSE         1.410153909E-01 kcal/mol
         MAE         9.366529381E-02 kcal/mol
     max. AE         1.156933369E+00 kcal/mol

Coordinates in bohr
s                   x[bohr]                   y[bohr]                   z[bohr]                      q[e]
+       -0.5595381002620707        1.7521085446859468       -0.2247981712777379        0.1964163482426776
+       -1.1678279392791779        3.3762928867233342       -0.2491413363825302        0.2908983155197060
-       -1.1107305753295396        2.5962944241481773       -0.2349223841407515       -0.9999999997933573
+       -0.7604875427255937       -1.1068986656757924       -0.2133627571817290        0.5957198164172021
-       -1.3147075124857808       -0.5940223703963885       -0.1692433904650353       -0.9993823320045465
+       -1.2624942574591591        0.8158615067175392       -0.1950649769251330        0.9997751956652913
