7
s                      x[A]                      y[A]                      z[A]                      q[e]
O       -0.6878250764427797        1.3501705187131434       -0.1043562766585019       -0.8060921320539546
N       -0.4301453823094137        0.8440074613299723       -0.1092942968126133        0.8122037126444970
N       -0.6159428183163657        1.6110430459410472       -0.1063038569001546        0.7332001638213008
O       -0.5070919680296094        1.3272395384787035       -0.1106308956441546       -0.9999999999263083
N       -0.3897924898662868       -0.5666774294419694       -0.1084677005201141        0.4594362775729534
O       -0.7857808543456949       -0.1965387260817570       -0.0709741512791094       -0.9617943289398982
N       -0.8259627278694616        0.4082573892339473       -0.0766745473281797        0.8464736509283830

        RMSE         1.182181391E-01 kcal/mol
         MAE         7.900956008E-02 kcal/mol
     max. AE         9.857962793E-01 kcal/mol

Coordinates in bohr
s                   x[bohr]                   y[bohr]                   z[bohr]                      q[e]
-       -1.2998010166989484        2.5514525030351747       -0.1972047823570759       -0.8060921320539546
+       -0.8128569666951446        1.5949429497565863       -0.2065362880503376        0.8122037126444970
+       -1.1639632355605607        3.0444301331519528       -0.2008851756211525        0.7332001638213008
-       -0.9582649399953787        2.5081192306037963       -0.2090620937815575       -0.9999999999263083
+       -0.7366010516075778       -1.0708651431237746       -0.2049742474411952        0.4594362775729534
-       -1.4849106093416320       -0.3714043653408960       -0.1341217079043293       -0.9617943289398982
+       -1.5608433455093360        0.7714946543465957       -0.1448938952437138        0.8464736509283830
