10
s                      x[A]                      y[A]                      z[A]                      q[e]
N        1.7917204992863502        0.8352010073641980       -0.8473058475777582        0.2095880596615740 
O        1.8715651078763920        0.0605828046725868       -0.1395376434327964       -0.4086635180438964 
N        2.8256472624810987       -0.2758268299142852        0.0870349116379717        0.2046203489919262 
O        1.0869775262242023       -0.5319964058685442        0.3729496678793628       -0.9378533243919529 
N        0.9202118667837715       -0.6660948909581085        0.4654593556877515        0.9999999999962857 
O       -1.2356877215416620       -1.2376186764357702       -0.1888970441588168       -0.2445514601055630 
N       -0.3721717678755883       -0.1833175212496468        0.0853340978725201        0.3687630364845343 
N       -1.8888439008674474        1.3806659417116465       -0.0751145486094151        0.2797508646023985 
O       -0.9544113770800882        1.1277192392504805        0.1169065588591640       -0.7199736142488342 
N       -0.3363694354432065        1.9760787270529985        0.3548712067507288        0.2483196070535278 

        RMSE         6.939540555e-01 kcal/mol
         MAE         5.038324652e-01 kcal/mol
     max. AE         6.637023557e+00 kcal/mol

Coordinates in bohr
s                   x[bohr]                   y[bohr]                   z[bohr]                      q[e]
+        3.3858607918087835        1.5783010493210250       -1.6011758804604399        0.2095880596615740 
-        3.5367452237109802        0.1144849004520648       -0.2636879111829555       -0.4086635180438964 
+        5.3396990665269781       -0.5212371288421767        0.1644721344377797        0.2046203489919262 
-        2.0540896803300130       -1.0053274340115816        0.7047726798313705       -0.9378533243919529 
+        1.7389482796794142       -1.2587368263172207        0.8795906410801552        0.9999999999962857 
-       -2.3351112011911987       -2.3387601768374093       -0.3569636535166379       -0.2445514601055630 
+       -0.7033026619777059       -0.3464198840711903        0.1612580624634372        0.3687630364845343 
+       -3.5693974078778172        2.6090803116273911       -0.1419459146291697        0.2797508646023985 
-       -1.8035759830837570        2.1310803542558538        0.2209213625139578       -0.7199736142488342 
+       -0.6356460639277373        3.7342473260316571        0.6706093420026960        0.2483196070535278 

total molecule built from fragment files: /home/boittier/pydcm/models/fbutadiene-13/3-fragfit/frag1/fit1/3charges.xyz /home/boittier/pydcm/models/fbutadiene-13/3-fragfit/frag2/fit1/2charges.xyz /home/boittier/pydcm/models/fbutadiene-13/3-fragfit/frag3/fit1/2charges.xyz /home/boittier/pydcm/models/fbutadiene-13/3-fragfit/frag4/fit2/3charges.xyz 