12
s                      x[A]                      y[A]                      z[A]                      q[e]
N        1.7917204992863502        0.8352010073641980       -0.8473058475777582        0.2095880596615740 
O        1.8715651078763920        0.0605828046725868       -0.1395376434327964       -0.4086635180438964 
N        2.8256472624810987       -0.2758268299142852        0.0870349116379717        0.2046203489919262 
O        0.8175264176068988       -0.3331798752920829        0.1965726082103543       -0.9999999987059838 
N        0.5066043085427121       -0.2762625474321313        0.1590954530861951        0.8458864037987430 
N        1.1220472832845498       -1.1810391664337037        0.8038152486099428        0.2162602705115735 
N       -1.2072968939990996       -0.6916774968990210       -0.0648478673805266        0.9202147228922176 
O       -1.2694442291021395       -0.8887660745604689       -0.1113742620346892       -0.9999999964042583 
N        0.0671205487605235       -0.0840222390725527        0.1276338252150396        0.2039968498910120 
N       -1.8888439008674474        1.3806659417116465       -0.0751145486094151        0.2797508646023985 
O       -0.9544113770800882        1.1277192392504805        0.1169065588591640       -0.7199736142488342 
N       -0.3363694354432065        1.9760787270529985        0.3548712067507288        0.2483196070535278 

        RMSE         3.590697190e-01 kcal/mol
         MAE         2.358729210e-01 kcal/mol
     max. AE         4.327222962e+00 kcal/mol

Coordinates in bohr
s                   x[bohr]                   y[bohr]                   z[bohr]                      q[e]
+        3.3858607918087835        1.5783010493210250       -1.6011758804604399        0.2095880596615740 
-        3.5367452237109802        0.1144849004520648       -0.2636879111829555       -0.4086635180438964 
+        5.3396990665269781       -0.5212371288421767        0.1644721344377797        0.2046203489919262 
-        1.5449009177188133       -0.6296186692179561        0.3714683663819923       -0.9999999987059838 
+        0.9573433277898961       -0.5220605155593387        0.3006468123650750        0.8458864037987430 
+        2.1203619116608401       -2.2318404063642507        1.5189905653311788        0.2162602705115735 
+       -2.2814603165461578       -1.3070809416198759       -0.1225447002942673        0.9202147228922176 
-       -2.3989017508126054       -1.6795243488829232       -0.2104668374280985       -0.9999999964042583 
+        0.1268394453618548       -0.1587790087957652        0.2411929565332903        0.2039968498910120 
+       -3.5693974078778172        2.6090803116273911       -0.1419459146291697        0.2797508646023985 
-       -1.8035759830837570        2.1310803542558538        0.2209213625139578       -0.7199736142488342 
+       -0.6356460639277373        3.7342473260316571        0.6706093420026960        0.2483196070535278 

total molecule built from fragment files: /home/boittier/pydcm/models/fbutadiene-13/3-fragfit/frag1/fit1/3charges.xyz /home/boittier/pydcm/models/fbutadiene-13/3-fragfit/frag2/fit1/3charges.xyz /home/boittier/pydcm/models/fbutadiene-13/3-fragfit/frag3/fit1/3charges.xyz /home/boittier/pydcm/models/fbutadiene-13/3-fragfit/frag4/fit2/3charges.xyz 