15
s                      x[A]                      y[A]                      z[A]                      q[e]
N        1.7917204992863502        0.8352010073641980       -0.8473058475777582        0.2095880596615740 
O        1.8715651078763920        0.0605828046725868       -0.1395376434327964       -0.4086635180438964 
N        2.8256472624810987       -0.2758268299142852        0.0870349116379717        0.2046203489919262 
N        0.4882011608168694       -0.3108412991698645        0.1617034896946047        0.4779535669963458 
N        1.3666357318109106       -0.7055818071802749        0.3985269559049452        0.5201085076768752 
O        1.1484154972912244       -0.4607939422651749        0.2457539364935282       -0.9999999995176795 
N        0.9143100431802480       -1.6067472975741424        1.1664112238444182        0.0640846004487913 
O       -1.2150357809632393       -0.8166873954988113       -0.1781771181417884       -0.6574155928926162 
O       -0.3145395197941975        0.3598309646258285       -0.0556472008514049       -0.9999999993226881 
N       -0.0358175616047412        0.3855677660935956        0.0000924765516732        0.7816271719652867 
N       -0.9032989639075919       -0.2465277934903016       -0.0951031212042171        0.9999999966289888 
N       -2.1578376379641959        1.4340028798784454       -0.1334820785668764        0.1357074589304404 
O       -0.9413011881300225        0.8462079265352240        0.4729134699294131       -0.2541487335423472 
O       -0.7414075897613061        0.9809293117403626       -0.3302704097614484       -0.2056898064626563 
N       -0.1767427528061190        2.1562698854481464        0.3997882427364081        0.1322279384816553 

        RMSE         2.459778038e-01 kcal/mol
         MAE         1.592288895e-01 kcal/mol
     max. AE         2.676228552e+00 kcal/mol

Coordinates in bohr
s                   x[bohr]                   y[bohr]                   z[bohr]                      q[e]
+        3.3858607918087835        1.5783010493210250       -1.6011758804604399        0.2095880596615740 
-        3.5367452237109802        0.1144849004520648       -0.2636879111829555       -0.4086635180438964 
+        5.3396990665269781       -0.5212371288421767        0.1644721344377797        0.2046203489919262 
+        0.9225664212603261       -0.5874048813714806        0.3055752869232068        0.4779535669963458 
+        2.5825670593524572       -1.3333562781119195        0.7531067457312212        0.5201085076768752 
-        2.1701906109422198       -0.8707742880879489        0.4644076005925742       -0.9999999995176795 
+        1.7277954502357029       -3.0363121253386747        2.2041976030935291        0.0640846004487913 
-       -2.2960846923651306       -1.5433153958361503       -0.3367059307263901       -0.6574155928926162 
-       -0.5943935049968591        0.6799819253564353       -0.1051579616417439       -0.9999999993226881 
+       -0.0676853770127610        0.7286174279535135        0.0001747553430330        0.7816271719652867 
+       -1.7069875275716297       -0.4658699782708368       -0.1797188397365848        0.9999999966289888 
+       -4.0777218636401793        2.7098725098335423       -0.2522445528801734        0.1357074589304404 
-       -1.7788013183093614        1.5991011105329325        0.8936768744846165       -0.2541487335423472 
-       -1.4010571905172273        1.8536876133752742       -0.6241205765917801       -0.2056898064626563 
+       -0.3339953732744287        4.0747592409669071        0.7554902322357155        0.1322279384816553 

total molecule built from fragment files: /home/boittier/pydcm/models/fbutadiene-13/3-fragfit/frag1/fit1/3charges.xyz /home/boittier/pydcm/models/fbutadiene-13/3-fragfit/frag2/fit1/4charges.xyz /home/boittier/pydcm/models/fbutadiene-13/3-fragfit/frag3/fit1/4charges.xyz /home/boittier/pydcm/models/fbutadiene-13/3-fragfit/frag4/fit1/4charges.xyz 