21
s                      x[A]                      y[A]                      z[A]                      q[e]
N        1.9789251428088497        1.2413710526121489       -1.1538687993906589        0.0640017381023518 
N        3.1264619788941270       -0.2681263040670775        0.0299267009315212        0.1070075863547914 
N        1.9126103464646018       -0.2984462443789864        0.1465447352229499        0.6115850602286542 
N        1.5127395222548032        0.3361355180664822       -0.4692263733171156        0.2229504973525127 
O        1.7778807149683280       -0.1534643882391916        0.0193393062714581       -0.9999999914287063 
O        1.2643199155034519       -0.3736015311959288        0.3528929211145450       -0.9999954252009655 
O        0.8736190877769325       -0.4207288449962665       -0.0960614464023495       -0.6382085916581677 
N        0.7054031154412812       -0.3493153232366221        0.0630523463896972        0.9999655150488393 
N        1.4263803517914568       -0.5526563588197472        0.4212930278253597        0.6411412261805851 
N        0.9856817219525206       -1.6074039697615921        1.2022474691351781        0.0592439512340415 
N       -1.5861827468890075       -1.3151897025040795       -0.3374330865256976        0.3996622135906721 
O       -1.1077030457180921       -0.9116752916899136       -0.3184760453930465       -0.4931911192633076 
N       -0.9513197903645576       -0.6956250531112249       -0.2419136682902968        0.7483288060478173 
O       -1.3930739654559410       -1.0407011769333199       -0.2408367714872667       -0.9981332062391799 
O       -0.4711341958397477        0.2371061784818466       -0.0461545854136962       -0.9999999981833276 
N       -0.0297078928735963        0.3794494662137341        0.0500731981219525        0.5747379678178516 
N       -0.9682479359039957       -0.2147286772869160       -0.0880851786856589        0.8928069126084455 
N       -2.1578376379641959        1.4340028798784454       -0.1334820785668764        0.1357074589304404 
O       -0.9413011881300225        0.8462079265352240        0.4729134699294131       -0.2541487335423472 
O       -0.7414075897613061        0.9809293117403626       -0.3302704097614484       -0.2056898064626563 
N       -0.1767427528061190        2.1562698854481464        0.3997882427364081        0.1322279384816553 

        RMSE         1.432142518e-01 kcal/mol
         MAE         9.165588568e-02 kcal/mol
     max. AE         1.928771747e+00 kcal/mol

Coordinates in bohr
s                   x[bohr]                   y[bohr]                   z[bohr]                      q[e]
+        3.7396262718598496        2.3458511396169155       -2.1804958576432081        0.0640017381023518 
+        5.9081564538860167       -0.5066852450228222        0.0565532645033554        0.1070075863547914 
+        3.6143094777794080       -0.5639816242030373        0.2769293946433142        0.6115850602286542 
+        2.8586631891872498        0.6352040241817561       -0.8867092721938789        0.2229504973525127 
-        3.3597073917063982       -0.2900056427802005        0.0365459896626693       -0.9999999914287063 
-        2.3892182022314290       -0.7060045228817003        0.6668709242231253       -0.9999954252009655 
-        1.6509006943090940       -0.7950622325431058       -0.1815298117690258       -0.6382085916581677 
+        1.3330185996887951       -0.6601102445364543        0.1191516576148202        0.9999655150488393 
+        2.6954680204087267       -1.0443690840267230        0.7961283834975652        0.6411412261805851 
+        1.8626683664616772       -3.0375530558372890        2.2719182871533223        0.0592439512340415 
+       -2.9974507594650932       -2.4853481607610615       -0.6376560730211233        0.3996622135906721 
-       -2.0932552331448524       -1.7228164918709152       -0.6018324597257934       -0.4931911192633076 
+       -1.7977337313214083       -1.3145407411855370       -0.4571505459657336        0.7483288060478173 
-       -2.6325280765641503       -1.9666400604175014       -0.4551155060900073       -0.9981332062391799 
-       -0.8903145339965332        0.4480657075347756       -0.0872195195493202       -0.9999999981833276 
+       -0.0561397772297797        0.7170555176644909        0.0946246238233703        0.5747379678178516 
+       -1.8297232878860876       -0.4057783619667877       -0.1664568513727644        0.8928069126084455 
+       -4.0777218636401793        2.7098725098335423       -0.2522445528801734        0.1357074589304404 
-       -1.7788013183093614        1.5991011105329325        0.8936768744846165       -0.2541487335423472 
-       -1.4010571905172273        1.8536876133752742       -0.6241205765917801       -0.2056898064626563 
+       -0.3339953732744287        4.0747592409669071        0.7554902322357155        0.1322279384816553 

total molecule built from fragment files: /home/boittier/pydcm/models/fbutadiene-13/3-fragfit/frag1/fit1/5charges.xyz /home/boittier/pydcm/models/fbutadiene-13/3-fragfit/frag2/fit1/5charges.xyz /home/boittier/pydcm/models/fbutadiene-13/3-fragfit/frag3/fit2/7charges.xyz /home/boittier/pydcm/models/fbutadiene-13/3-fragfit/frag4/fit1/4charges.xyz 