22
s                      x[A]                      y[A]                      z[A]                      q[e]
N        1.9789251428088497        1.2413710526121489       -1.1538687993906589        0.0640017381023518 
N        3.1264619788941270       -0.2681263040670775        0.0299267009315212        0.1070075863547914 
N        1.9126103464646018       -0.2984462443789864        0.1465447352229499        0.6115850602286542 
N        1.5127395222548032        0.3361355180664822       -0.4692263733171156        0.2229504973525127 
O        1.7778807149683280       -0.1534643882391916        0.0193393062714581       -0.9999999914287063 
O        1.2643199155034519       -0.3736015311959288        0.3528929211145450       -0.9999954252009655 
O        0.8736190877769325       -0.4207288449962665       -0.0960614464023495       -0.6382085916581677 
N        0.7054031154412812       -0.3493153232366221        0.0630523463896972        0.9999655150488393 
N        1.4263803517914568       -0.5526563588197472        0.4212930278253597        0.6411412261805851 
N        0.9856817219525206       -1.6074039697615921        1.2022474691351781        0.0592439512340415 
N       -1.5466531576547278       -1.2878262585623328       -0.2645744665115271        0.4175738514121122 
O       -1.3776676113785189       -0.7928540698940708       -0.1758176208333420       -0.5071252077158103 
N       -0.9994633264652268       -0.6584769439700909       -0.1008683098541392        0.7666055613111644 
O       -1.2914885034959291       -1.0576995036783989       -0.1970359827127481       -0.9999984975300285 
N       -0.2288902322305581        0.4687581590625293        0.0099678120172860        0.9726190087151118 
O       -0.6730746799838537        0.2449401054764606        0.2357013792916875       -0.4834573550684307 
O       -0.4340352904714134        0.4457801762351001       -0.1282313153518865       -0.9625228319458523 
N       -1.0003701953777697       -0.1017499707480103       -0.0427094732547505        0.9205170472007047 
N       -2.1578376379641959        1.4340028798784454       -0.1334820785668764        0.1357074589304404 
O       -0.9413011881300225        0.8462079265352240        0.4729134699294131       -0.2541487335423472 
O       -0.7414075897613061        0.9809293117403626       -0.3302704097614484       -0.2056898064626563 
N       -0.1767427528061190        2.1562698854481464        0.3997882427364081        0.1322279384816553 

        RMSE         1.276290161e-01 kcal/mol
         MAE         8.098643221e-02 kcal/mol
     max. AE         1.928771747e+00 kcal/mol

Coordinates in bohr
s                   x[bohr]                   y[bohr]                   z[bohr]                      q[e]
+        3.7396262718598496        2.3458511396169155       -2.1804958576432081        0.0640017381023518 
+        5.9081564538860167       -0.5066852450228222        0.0565532645033554        0.1070075863547914 
+        3.6143094777794080       -0.5639816242030373        0.2769293946433142        0.6115850602286542 
+        2.8586631891872498        0.6352040241817561       -0.8867092721938789        0.2229504973525127 
-        3.3597073917063982       -0.2900056427802005        0.0365459896626693       -0.9999999914287063 
-        2.3892182022314290       -0.7060045228817003        0.6668709242231253       -0.9999954252009655 
-        1.6509006943090940       -0.7950622325431058       -0.1815298117690258       -0.6382085916581677 
+        1.3330185996887951       -0.6601102445364543        0.1191516576148202        0.9999655150488393 
+        2.6954680204087267       -1.0443690840267230        0.7961283834975652        0.6411412261805851 
+        1.8626683664616772       -3.0375530558372890        2.2719182871533223        0.0592439512340415 
+       -2.9227506673703920       -2.4336387496067435       -0.4999732452868131        0.4175738514121122 
-       -2.6034142888744722       -1.4982769410461065       -0.3322471273425872       -0.5071252077158103 
+       -1.8887118226739452       -1.2443409939141870       -0.1906134665575243        0.7666055613111644 
-       -2.4405593890343793       -1.9987622402303917       -0.3723440172216204       -0.9999984975300285 
+       -0.4325398203827750        0.8858244755487542        0.0188364334185447        0.9726190087151118 
-       -1.2719267150341167        0.4628696829692928        0.4454110219963677       -0.4834573550684307 
-       -0.8202077683733798        0.8424023842341567       -0.2423220491728221       -0.9625228319458523 
+       -1.8904255564262309       -0.1922795640618049       -0.0807092015689187        0.9205170472007047 
+       -4.0777218636401793        2.7098725098335423       -0.2522445528801734        0.1357074589304404 
-       -1.7788013183093614        1.5991011105329325        0.8936768744846165       -0.2541487335423472 
-       -1.4010571905172273        1.8536876133752742       -0.6241205765917801       -0.2056898064626563 
+       -0.3339953732744287        4.0747592409669071        0.7554902322357155        0.1322279384816553 

total molecule built from fragment files: /home/boittier/pydcm/models/fbutadiene-13/3-fragfit/frag1/fit1/5charges.xyz /home/boittier/pydcm/models/fbutadiene-13/3-fragfit/frag2/fit1/5charges.xyz /home/boittier/pydcm/models/fbutadiene-13/3-fragfit/frag3/fit2/8charges.xyz /home/boittier/pydcm/models/fbutadiene-13/3-fragfit/frag4/fit1/4charges.xyz 