25
s                      x[A]                      y[A]                      z[A]                      q[e]
N        1.9789251428088497        1.2413710526121489       -1.1538687993906589        0.0640017381023518 
N        3.1264619788941270       -0.2681263040670775        0.0299267009315212        0.1070075863547914 
N        1.9126103464646018       -0.2984462443789864        0.1465447352229499        0.6115850602286542 
N        1.5127395222548032        0.3361355180664822       -0.4692263733171156        0.2229504973525127 
O        1.7778807149683280       -0.1534643882391916        0.0193393062714581       -0.9999999914287063 
O        1.2617358761229140       -0.3802578995914373        0.3956824007238218       -0.9999999980081755 
O        0.9373391968007809       -0.5097905719975994       -0.1461351322154946       -0.5671659202143636 
N        0.7575039556386826       -0.4242461305184768        0.0985689665974829        0.9898738709638202 
N        1.3537357323298784       -0.6726492435476472        0.5093037332496536        0.8126581035955798 
O        1.0522769835715138       -1.2695986231115868        0.8807686678703202       -0.9993609474969498 
N        1.0309117692972334       -1.3670977875453378        0.9614398752361926        0.8261415667644217 
N       -1.5466531576547278       -1.2878262585623328       -0.2645744665115271        0.4175738514121122 
O       -1.3776676113785189       -0.7928540698940708       -0.1758176208333420       -0.5071252077158103 
N       -0.9994633264652268       -0.6584769439700909       -0.1008683098541392        0.7666055613111644 
O       -1.2914885034959291       -1.0576995036783989       -0.1970359827127481       -0.9999984975300285 
N       -0.2288902322305581        0.4687581590625293        0.0099678120172860        0.9726190087151118 
O       -0.6730746799838537        0.2449401054764606        0.2357013792916875       -0.4834573550684307 
O       -0.4340352904714134        0.4457801762351001       -0.1282313153518865       -0.9625228319458523 
N       -1.0003701953777697       -0.1017499707480103       -0.0427094732547505        0.9205170472007047 
O       -2.3409498258836421        1.4411603138326938        0.1346916041394534       -0.1660363977010749 
N       -2.2843202213297298        1.4482097571017880        0.0236561829594665        0.2846577678177076 
O       -0.5345604037022684        1.0501485768133585       -0.0951416303394031       -0.9999973864469238 
N       -0.4833672425942546        1.1023595477445369        0.0433470574004257        0.9999999969670357 
O       -0.7830933169589217        0.8706910519804298        0.4502512265743305       -0.3811517348869009 
N       -0.1400613234435267        2.4343235712217748        0.4479072727861027        0.0706246116572485 

        RMSE         9.496179405e-02 kcal/mol
         MAE         5.949937808e-02 kcal/mol
     max. AE         1.445130303e+00 kcal/mol

Coordinates in bohr
s                   x[bohr]                   y[bohr]                   z[bohr]                      q[e]
+        3.7396262718598496        2.3458511396169155       -2.1804958576432081        0.0640017381023518 
+        5.9081564538860167       -0.5066852450228222        0.0565532645033554        0.1070075863547914 
+        3.6143094777794080       -0.5639816242030373        0.2769293946433142        0.6115850602286542 
+        2.8586631891872498        0.6352040241817561       -0.8867092721938789        0.2229504973525127 
-        3.3597073917063982       -0.2900056427802005        0.0365459896626693       -0.9999999914287063 
-        2.3843350758584609       -0.7185832352283884        0.7477313158794455       -0.9999999980081755 
-        1.7713142403278856       -0.9633644926471229       -0.2761553571951172       -0.5671659202143636 
+        1.4314749114377199       -0.8017089384037532        0.1862683378487087        0.9898738709638202 
+        2.5581895950802243       -1.2711227567441197        0.9624445008128724        0.8126581035955798 
-        1.9885151630607047       -2.3991935131847422        1.6644114416191458       -0.9993609474969498 
+        1.9481407623945894       -2.5834402180819862        1.8168579187101745        0.8261415667644217 
+       -2.9227506673703920       -2.4336387496067435       -0.4999732452868131        0.4175738514121122 
-       -2.6034142888744722       -1.4982769410461065       -0.3322471273425872       -0.5071252077158103 
+       -1.8887118226739452       -1.2443409939141870       -0.1906134665575243        0.7666055613111644 
-       -2.4405593890343793       -1.9987622402303917       -0.3723440172216204       -0.9999984975300285 
+       -0.4325398203827750        0.8858244755487542        0.0188364334185447        0.9726190087151118 
-       -1.2719267150341167        0.4628696829692928        0.4454110219963677       -0.4834573550684307 
-       -0.8202077683733798        0.8424023842341567       -0.2423220491728221       -0.9625228319458523 
+       -1.8904255564262309       -0.1922795640618049       -0.0807092015689187        0.9205170472007047 
-       -4.4237537239809637        2.7233980987885738        0.2545302247885485       -0.1660363977010749 
+       -4.3167392885312941        2.7367196149393420        0.0447037037295803        0.2846577678177076 
-       -1.0101726873526842        1.9844930574955069       -0.1797916114501443       -0.9999973864469238 
+       -0.9134316403682838        2.0831574861541937        0.0819140608989204        0.9999999969670357 
-       -1.4798317925562514        1.6453675089688917        0.8508514442565392       -0.3811517348869009 
+       -0.2646775229089429        4.6002045171993506        0.8464220138668478        0.0706246116572485 

total molecule built from fragment files: /home/boittier/pydcm/models/fbutadiene-13/3-fragfit/frag1/fit1/5charges.xyz /home/boittier/pydcm/models/fbutadiene-13/3-fragfit/frag2/fit1/6charges.xyz /home/boittier/pydcm/models/fbutadiene-13/3-fragfit/frag3/fit2/8charges.xyz /home/boittier/pydcm/models/fbutadiene-13/3-fragfit/frag4/fit2/6charges.xyz 