28
s                      x[A]                      y[A]                      z[A]                      q[e]
N        1.9743198904000738        1.0444885884782482       -1.1578161519812233        0.8828902180470373 
N        2.0442048267698270        0.6257300541221581       -0.7668271933833094        0.2864455235665361 
O        1.9869177553026152        0.9900389986914747       -1.1231454100301796       -0.9877732520754967 
N        3.3427549004744721       -0.3729056081287286        0.0656601201112527        0.0627311560329842 
N        2.0548613161248634       -0.2607777162319442        0.1488633572245592        0.3609079757556989 
N        1.4361693362711880        0.2428619140093580       -0.3371416961269089        0.3675619073655348 
O        1.7125567096385099       -0.0016841517570627       -0.0962107392636979       -0.9672186380826908 
O        1.3067509622950373       -0.3057430754082536        0.3673141921077767       -0.9965206739812187 
O        0.9633430272226151       -0.4876345692939057       -0.2021023088262935       -0.5568248643559578 
N        0.8030103847191754       -0.4004529023653724        0.0686518803358371        0.9999999998369785 
N        1.4200151485243384       -0.5156526089283130        0.4418312991036870        0.6572503335868189 
N        0.9525399951757114       -1.4495547243334881        1.0118840056689824        0.4899243853462638 
N        0.5787005096912630       -1.3398299295436984        0.8756235199040089        0.1167091956544082 
O        0.8860200685451639       -1.3449577942280448        0.9114381437550795       -0.6483917004829602 
N       -1.5466531576547278       -1.2878262585623328       -0.2645744665115271        0.4175738514121122 
O       -1.3776676113785189       -0.7928540698940708       -0.1758176208333420       -0.5071252077158103 
N       -0.9994633264652268       -0.6584769439700909       -0.1008683098541392        0.7666055613111644 
O       -1.2914885034959291       -1.0576995036783989       -0.1970359827127481       -0.9999984975300285 
N       -0.2288902322305581        0.4687581590625293        0.0099678120172860        0.9726190087151118 
O       -0.6730746799838537        0.2449401054764606        0.2357013792916875       -0.4834573550684307 
O       -0.4340352904714134        0.4457801762351001       -0.1282313153518865       -0.9625228319458523 
N       -1.0003701953777697       -0.1017499707480103       -0.0427094732547505        0.9205170472007047 
O       -2.3409498258836421        1.4411603138326938        0.1346916041394534       -0.1660363977010749 
N       -2.2843202213297298        1.4482097571017880        0.0236561829594665        0.2846577678177076 
O       -0.5345604037022684        1.0501485768133585       -0.0951416303394031       -0.9999973864469238 
N       -0.4833672425942546        1.1023595477445369        0.0433470574004257        0.9999999969670357 
O       -0.7830933169589217        0.8706910519804298        0.4502512265743305       -0.3811517348869009 
N       -0.1400613234435267        2.4343235712217748        0.4479072727861027        0.0706246116572485 

        RMSE         7.610612281e-02 kcal/mol
         MAE         4.690478740e-02 kcal/mol
     max. AE         1.399776525e+00 kcal/mol

Coordinates in bohr
s                   x[bohr]                   y[bohr]                   z[bohr]                      q[e]
+        3.7309236066989233        1.9737972304434761       -2.1879552724197651        0.8828902180470373 
+        3.8629869871685028        1.1824583451227266       -1.4490932761016377        0.2864455235665361 
-        3.7547301194061271        1.8709024255548010       -2.1224370703108337       -0.9877732520754967 
+        6.3168908089466163       -0.7046894189755458        0.1240796353888318        0.0627311560329842 
+        3.8831248320499547       -0.4927984276112610        0.2813109548974951        0.3609079757556989 
+        2.7139665187820765        0.4589424705446222       -0.6371054250117038        0.3675619073655348 
-        3.2362629211551961       -0.0031825853440677       -0.1818119343690283       -0.9672186380826908 
-        2.4694012540769905       -0.5777706354334663        0.6941231748076787       -0.9965206739812187 
-        1.8204543544791729       -0.9214957185344611       -0.3819179853451100       -0.5568248643559578 
+        1.5174695931195101       -0.7567462568101426        0.1297332424368887        0.9999999998369785 
+        2.6834395303721310       -0.9744421361812254        0.8349400884931372        0.6572503335868189 
+        1.8000395840644605       -2.7392612344709013        1.9121835029613456        0.4899243853462638 
+        1.0935853927796457       -2.5319114381628336        1.6546885217920149        0.1167091956544082 
-        1.6743351499509496       -2.5416016973228674        1.7223683472553164       -0.6483917004829602 
+       -2.9227506673703920       -2.4336387496067435       -0.4999732452868131        0.4175738514121122 
-       -2.6034142888744722       -1.4982769410461065       -0.3322471273425872       -0.5071252077158103 
+       -1.8887118226739452       -1.2443409939141870       -0.1906134665575243        0.7666055613111644 
-       -2.4405593890343793       -1.9987622402303917       -0.3723440172216204       -0.9999984975300285 
+       -0.4325398203827750        0.8858244755487542        0.0188364334185447        0.9726190087151118 
-       -1.2719267150341167        0.4628696829692928        0.4454110219963677       -0.4834573550684307 
-       -0.8202077683733798        0.8424023842341567       -0.2423220491728221       -0.9625228319458523 
+       -1.8904255564262309       -0.1922795640618049       -0.0807092015689187        0.9205170472007047 
-       -4.4237537239809637        2.7233980987885738        0.2545302247885485       -0.1660363977010749 
+       -4.3167392885312941        2.7367196149393420        0.0447037037295803        0.2846577678177076 
-       -1.0101726873526842        1.9844930574955069       -0.1797916114501443       -0.9999973864469238 
+       -0.9134316403682838        2.0831574861541937        0.0819140608989204        0.9999999969670357 
-       -1.4798317925562514        1.6453675089688917        0.8508514442565392       -0.3811517348869009 
+       -0.2646775229089429        4.6002045171993506        0.8464220138668478        0.0706246116572485 

total molecule built from fragment files: /home/boittier/pydcm/models/fbutadiene-13/3-fragfit/frag1/fit1/7charges.xyz /home/boittier/pydcm/models/fbutadiene-13/3-fragfit/frag2/fit1/7charges.xyz /home/boittier/pydcm/models/fbutadiene-13/3-fragfit/frag3/fit2/8charges.xyz /home/boittier/pydcm/models/fbutadiene-13/3-fragfit/frag4/fit2/6charges.xyz 