32
s                      x[A]                      y[A]                      z[A]                      q[e]
N        1.5747066992934520        0.8904170439925425       -0.7147190826959098        0.6430296988684469 
N        1.8989704231194939        1.1576027010221766       -1.0093226710195893        0.2036471635032522 
O        1.6731603397418635        0.8820865724990611       -0.7168950633185482       -0.9849154113741690 
N        3.3354169027915703       -0.3512779837459050        0.0439756457403015        0.0620582067154127 
O        1.6472317261962122        0.1478654121805504       -0.0550347710323976       -0.9367336926883210 
N        1.9797657005910123       -0.3951362244102319       -0.0060343944193350        0.5748248599382280 
N        1.6789409513809295        0.3519376754267193       -0.3046543398682072        0.9379504122459186 
O        1.8983637872469572       -0.4323203432287950       -0.1793600634163415       -0.4943163465991645 
O        1.3067509622950373       -0.3057430754082536        0.3673141921077767       -0.9965206739812187 
O        0.9633430272226151       -0.4876345692939057       -0.2021023088262935       -0.5568248643559578 
N        0.8030103847191754       -0.4004529023653724        0.0686518803358371        0.9999999998369785 
N        1.4200151485243384       -0.5156526089283130        0.4418312991036870        0.6572503335868189 
N        0.9525399951757114       -1.4495547243334881        1.0118840056689824        0.4899243853462638 
N        0.5787005096912630       -1.3398299295436984        0.8756235199040089        0.1167091956544082 
O        0.8860200685451639       -1.3449577942280448        0.9114381437550795       -0.6483917004829602 
N       -1.5466531576547278       -1.2878262585623328       -0.2645744665115271        0.4175738514121122 
O       -1.3776676113785189       -0.7928540698940708       -0.1758176208333420       -0.5071252077158103 
N       -0.9994633264652268       -0.6584769439700909       -0.1008683098541392        0.7666055613111644 
O       -1.2914885034959291       -1.0576995036783989       -0.1970359827127481       -0.9999984975300285 
N       -0.2288902322305581        0.4687581590625293        0.0099678120172860        0.9726190087151118 
O       -0.6730746799838537        0.2449401054764606        0.2357013792916875       -0.4834573550684307 
O       -0.4340352904714134        0.4457801762351001       -0.1282313153518865       -0.9625228319458523 
N       -1.0003701953777697       -0.1017499707480103       -0.0427094732547505        0.9205170472007047 
O       -1.9635817498539736        1.5893078422717533       -0.4782237851052604       -0.0303903254320093 
O       -2.1908203815655596        1.4933054881972829        0.0796786394352533       -0.2793389281528362 
N       -2.2424279041531743        1.5041299659279086       -0.0214977846816452        0.3561475011216395 
O       -0.8015040737472569        0.9937614391502477       -0.2457822621620488       -0.4694353336663477 
N       -1.0279744949144916        1.0981317076876524        0.1108236733406261        0.8586538863964309 
O       -0.9404795369386911        0.9291167509585003        0.3528544077594755       -0.7457134549199285 
O       -0.2398104630795318        1.8963700527248497        0.2902904640466989       -0.9999999747952583 
N       -0.2036538253173317        1.7275036517217706        0.2823195019006388        0.7476287994212838 
N       -0.2098243014203333        2.2048301129731311        0.3501705971035637        0.3705446874341178 

        RMSE         5.913720987e-02 kcal/mol
         MAE         3.695519513e-02 kcal/mol
     max. AE         8.198169034e-01 kcal/mol

Coordinates in bohr
s                   x[bohr]                   y[bohr]                   z[bohr]                      q[e]
+        2.9757641740773613        1.6826442287250971       -1.3506232251188133        0.6430296988684469 
+        3.5885337601516460        2.1875519085951627       -1.9073432823088858        0.2036471635032522 
-        3.1618145771050048        1.6669019202465738       -1.3547352322521031       -0.9849154113741690 
+        6.3030240040209504       -0.6638191351076451        0.0831019206209146        0.0620582067154127 
-        3.1128166022394215        0.2794251122126371       -0.1040006370965722       -0.9367336926883210 
+        3.7412146957457222       -0.7466991923052969       -0.0114033519596802        0.5748248599382280 
+        3.1727383491493515        0.6650657716213429       -0.5757132235887282        0.9379504122459186 
-        3.5873873845776960       -0.8169669879999258       -0.3389413731548047       -0.4943163465991645 
-        2.4694012540769905       -0.5777706354334663        0.6941231748076787       -0.9965206739812187 
-        1.8204543544791729       -0.9214957185344611       -0.3819179853451100       -0.5568248643559578 
+        1.5174695931195101       -0.7567462568101426        0.1297332424368887        0.9999999998369785 
+        2.6834395303721310       -0.9744421361812254        0.8349400884931372        0.6572503335868189 
+        1.8000395840644605       -2.7392612344709013        1.9121835029613456        0.4899243853462638 
+        1.0935853927796457       -2.5319114381628336        1.6546885217920149        0.1167091956544082 
-        1.6743351499509496       -2.5416016973228674        1.7223683472553164       -0.6483917004829602 
+       -2.9227506673703920       -2.4336387496067435       -0.4999732452868131        0.4175738514121122 
-       -2.6034142888744722       -1.4982769410461065       -0.3322471273425872       -0.5071252077158103 
+       -1.8887118226739452       -1.2443409939141870       -0.1906134665575243        0.7666055613111644 
-       -2.4405593890343793       -1.9987622402303917       -0.3723440172216204       -0.9999984975300285 
+       -0.4325398203827750        0.8858244755487542        0.0188364334185447        0.9726190087151118 
-       -1.2719267150341167        0.4628696829692928        0.4454110219963677       -0.4834573550684307 
-       -0.8202077683733798        0.8424023842341567       -0.2423220491728221       -0.9625228319458523 
+       -1.8904255564262309       -0.1922795640618049       -0.0807092015689187        0.9205170472007047 
-       -3.7106314634397179        3.0033563334267219       -0.9037119150800722       -0.0303903254320093 
-       -4.1400502113990063        2.8219381899654161        0.1505707956770870       -0.2793389281528362 
+       -4.2375742880400828        2.8423934868460012       -0.0406249224102319        0.3561475011216395 
-       -1.5146230781289622        1.8779368180307605       -0.4644611283445220       -0.4694353336663477 
+       -1.9425901186578731        2.0751680269230550        0.2094263756638981        0.8586538863964309 
-       -1.7772486226995383        1.7557760707298720        0.6667981445351424       -0.7457134549199285 
-       -0.4531760644195920        3.5836197726369008        0.5485694341518008       -0.9999999747952583 
+       -0.3848499263799663        3.2645085460600329        0.5335064998302442        0.7476287994212838 
+       -0.3965104354338437        4.1665247649332002        0.6617264777901841        0.3705446874341178 

total molecule built from fragment files: /home/boittier/pydcm/models/fbutadiene-13/3-fragfit/frag1/fit2/8charges.xyz /home/boittier/pydcm/models/fbutadiene-13/3-fragfit/frag2/fit1/7charges.xyz /home/boittier/pydcm/models/fbutadiene-13/3-fragfit/frag3/fit2/8charges.xyz /home/boittier/pydcm/models/fbutadiene-13/3-fragfit/frag4/fit2/9charges.xyz 