35
s                      x[A]                      y[A]                      z[A]                      q[e]
N        2.1515146945139607        0.7717230495889279       -0.6514097930019913        0.2626056743349286 
N        2.0040017256088261        1.1799446516865744       -1.0203753415146570        0.7882222013802578 
O        2.0284175962873547        1.1303228566045822       -0.9656563915288765       -0.8941035061332175 
N        3.2006561063057970       -0.3056928206282529       -0.0975993180844148        0.2820161811562526 
O        2.9781102491788460       -0.2459836181033367       -0.2605674205773821       -0.6353217892762769 
N        2.8884846548166565       -0.2220017115431457       -0.3740483030795526        0.3732944138596057 
N        2.1817053912696496       -0.2669576328208023        0.0793003288622042        0.3793043953406029 
N        1.4522289377884583        0.2339780023124413       -0.3689529461131067        0.4495271450219294 
O        1.7118557736110755        0.0160165519803060       -0.1434101910028066       -0.9999998250744786 
O        1.3371989730401801       -0.2291326928236903        0.4733441586425023       -0.9221080122805253 
O        0.9952940370535928       -0.4491457537955343       -0.1924421121474856       -0.6190002130899700 
N        0.8089828752129761       -0.3855677205903861        0.0516756329151621        0.9104089765417531 
N        1.3648495447247999       -0.4234510274866852        0.5502101982098832        0.7760328273392756 
N        1.0161660520836502       -1.3753250649616648        1.1701134375410864        0.1643065017159743 
O        0.9479087461194372       -1.2967926845743249        0.5598147723257125       -0.4820388414113309 
O        1.0107811114274960       -1.0852987739658091        0.9050398757824639       -0.6363734375151111 
N        0.9696686908135300       -1.2133733423213899        0.6996777981426910        0.8709188743042672 
N       -1.5466531576547278       -1.2878262585623328       -0.2645744665115271        0.4175738514121122 
O       -1.3776676113785189       -0.7928540698940708       -0.1758176208333420       -0.5071252077158103 
N       -0.9994633264652268       -0.6584769439700909       -0.1008683098541392        0.7666055613111644 
O       -1.2914885034959291       -1.0576995036783989       -0.1970359827127481       -0.9999984975300285 
N       -0.2288902322305581        0.4687581590625293        0.0099678120172860        0.9726190087151118 
O       -0.6730746799838537        0.2449401054764606        0.2357013792916875       -0.4834573550684307 
O       -0.4340352904714134        0.4457801762351001       -0.1282313153518865       -0.9625228319458523 
N       -1.0003701953777697       -0.1017499707480103       -0.0427094732547505        0.9205170472007047 
O       -1.8770562309150933        1.4670908022928557       -0.4804980866418128       -0.0540681336037231 
O       -1.9545197499988674        1.3690656783344077        0.1454401684569821       -0.1694396042923206 
N       -2.2276469031425812        1.4697800368531972       -0.1031785993640240        0.1930873754902827 
N       -0.6488885454073035        0.9839632422604720        0.3171498963230922        0.7623777929677579 
O       -0.7939135694724874        0.9117277575698389        0.4008134750575107       -0.9522881316186970 
N       -1.1632811426804264        1.1517720276909365        0.0284853166826988        0.7264094409588591 
O       -0.8321502936787311        1.0138780625855313       -0.1206989320460171       -0.7617174452954946 
O       -0.2564702385854123        1.8443766089442204        0.2927952125854862       -0.8499531026330819 
N       -0.2077088303308243        1.7610934178372279        0.2787918884343842        0.7011462885391462 
N       -0.2184418187511863        2.2601750730335226        0.3865706278118377        0.2125423768943635 

        RMSE         5.631975246e-02 kcal/mol
         MAE         3.482659272e-02 kcal/mol
     max. AE         1.045904008e+00 kcal/mol

Coordinates in bohr
s                   x[bohr]                   y[bohr]                   z[bohr]                      q[e]
+        4.0657732330778211        1.4583451028098435       -1.2309860150644094        0.2626056743349286 
+        3.7870141420822447        2.2297720734016941       -1.9282298009868479        0.7882222013802578 
-        3.8331534474377569        2.1360004776342700       -1.8248259791298147       -0.8941035061332175 
+        6.0483630246573492       -0.5776756676696477       -0.1844359678537566        0.2820161811562526 
-        5.6278123347892874       -0.4648416358997328       -0.4924010264475453       -0.6353217892762769 
+        5.4584445198793361       -0.4195224038167630       -0.7068487993211600        0.3732944138596057 
+        4.1228253773509884       -0.5044767765966065        0.1498558923554340        0.3793043953406029 
+        2.7443147651358224        0.4421543117305312       -0.6972199708404730        0.4495271450219294 
-        3.2349383441278077        0.0302668945249470       -0.2710059649680935       -0.9999998250744786 
-        2.5269396512832589       -0.4329980044668283        0.8944907581387379       -0.9221080122805253 
-        1.8808330081187856       -0.8487624036167583       -0.3636628606261793       -0.6190002130899700 
+        1.5287559636223116       -0.7286173419649159        0.0976527864971354        0.9104089765417531 
+        2.5791916551953324       -0.8002064115409619        1.0397465107499733        0.7760328273392756 
+        1.9202753973555349       -2.5989875180310413        2.2111937725314736        0.1643065017159743 
-        1.7912877923631398       -2.4505828378664640        1.0578965240660909       -0.4820388414113309 
-        1.9100993350505318       -2.0509172985589066        1.7102773739854378       -0.6363734375151111 
+        1.8324081253620657       -2.2929431388591746        1.3221993187966681        0.8709188743042672 
+       -2.9227506673703920       -2.4336387496067435       -0.4999732452868131        0.4175738514121122 
-       -2.6034142888744722       -1.4982769410461065       -0.3322471273425872       -0.5071252077158103 
+       -1.8887118226739452       -1.2443409939141870       -0.1906134665575243        0.7666055613111644 
-       -2.4405593890343793       -1.9987622402303917       -0.3723440172216204       -0.9999984975300285 
+       -0.4325398203827750        0.8858244755487542        0.0188364334185447        0.9726190087151118 
-       -1.2719267150341167        0.4628696829692928        0.4454110219963677       -0.4834573550684307 
-       -0.8202077683733798        0.8424023842341567       -0.2423220491728221       -0.9625228319458523 
+       -1.8904255564262309       -0.1922795640618049       -0.0807092015689187        0.9205170472007047 
-       -3.5471219416238147        2.7723996167288338       -0.9080097217996081       -0.0540681336037231 
-       -3.6935067668048345        2.5871589924488183        0.2748420661195211       -0.1694396042923206 
+       -4.2096422462928427        2.7774815331669527       -0.1949792806855436        0.1930873754902827 
+       -1.2262215479610326        1.8594209107267319        0.5993264013635429        0.7623777929677579 
-       -1.5002791049343509        1.7229156380077251        0.7574276403972559       -0.9522881316186970 
+       -2.1982826073715063        2.1765335336700815        0.0538294432287971        0.7264094409588591 
-       -1.5725360363858203        1.9159517241392956       -0.2280879086836239       -0.7617174452954946 
-       -0.4846584751572961        3.4853664106878326        0.5533027225604550       -0.8499531026330819 
+       -0.3925127747378666        3.3279840000394083        0.5268402769853275        0.7011462885391462 
+       -0.4127951818911675        4.2711115742973504        0.7305125618054477        0.2125423768943635 

total molecule built from fragment files: /home/boittier/pydcm/models/fbutadiene-13/3-fragfit/frag1/fit2/9charges.xyz /home/boittier/pydcm/models/fbutadiene-13/3-fragfit/frag2/fit2/8charges.xyz /home/boittier/pydcm/models/fbutadiene-13/3-fragfit/frag3/fit2/8charges.xyz /home/boittier/pydcm/models/fbutadiene-13/3-fragfit/frag4/fit2/10charges.xyz 