4
s                      x[A]                      y[A]                      z[A]                      q[e]
N       -0.3948216412444745       -0.6168611354057830       -0.1259909779016269        0.7067862025910419
O       -0.5965218209582521        1.0929473059086983       -0.1229533981049913       -0.6233588618594241
O       -0.6348882122130773       -0.4419530217532219       -0.1054422757586535       -0.9999999962545513
N       -0.5920637364645123        0.3979574741439849       -0.1116724906735704        0.9999999995699066

        RMSE         3.145220848E-01 kcal/mol
         MAE         2.096804766E-01 kcal/mol
     max. AE         2.534926197E+00 kcal/mol

Coordinates in bohr
s                   x[bohr]                   y[bohr]                   z[bohr]                      q[e]
+       -0.7461047703558215       -1.1656986033558872       -0.2380884425126842        0.7067862025910419
-       -1.1272628694704860        2.0653710777244161       -0.2323482486128191       -0.6233588618594241
-       -1.1997648413642661       -0.8351701714320954       -0.1992570232288561       -0.9999999962545513
+       -1.1188383107331674        0.7520306357110963       -0.2110304231207916        0.9999999995699066
