6
s                      x[A]                      y[A]                      z[A]                      q[e]
N       -0.4325253723257305        0.8478699175031120       -0.0540609552086896        0.2606294360212155
N       -0.6603673956704269        1.7848514532731397       -0.1249564832042926        0.3328286399721747
O       -0.6258234251348803        1.4118913532488089       -0.1181522658093080       -0.9974504553911929
N       -0.3213972277295271       -0.5929440234028713       -0.1447879785874792        0.4366656181737025
O       -0.7316628492428521       -0.2185800929175459       -0.1122751819613904       -0.9492456180362165
N       -0.7085447532137643        0.3687630271239411       -0.1240168592504887        0.9999997233072897

        RMSE         1.567073480E-01 kcal/mol
         MAE         1.053342121E-01 kcal/mol
     max. AE         1.190898915E+00 kcal/mol

Coordinates in bohr
s                   x[bohr]                   y[bohr]                   z[bohr]                      q[e]
+       -0.8173544960073071        1.6022419340954044       -0.1021603994250663        0.2606294360212155
+       -1.2479135199989524        3.3728804213116241       -0.2361335308564841        0.3328286399721747
-       -1.1826348764008845        2.6680879765422816       -0.2232754234818870       -0.9974504553911929
+       -0.6073527378902064       -1.1205018119584838       -0.2736096257889880        0.4366656181737025
-       -1.3826424012411298       -0.4130565120912860       -0.2121693445929710       -0.9492456180362165
+       -1.3389555312041199        0.6968611264590252       -0.2343578989228749        0.9999997233072897
