3
s                      x[A]                      y[A]                      z[A]                      q[e]
O        0.9591151623773838       -1.1019649655641433       -0.9120469037832084       -0.4659402415114741
N        0.8926860821477151       -1.2738579833448960       -0.6656469038946966        0.9999999972120966
O        0.8436405431007415       -1.4525260100631323       -0.4644883579229582       -0.4760048829968415

        RMSE         4.566240116E-01 kcal/mol
         MAE         3.172430444E-01 kcal/mol
     max. AE         3.041445826E+00 kcal/mol

Coordinates in bohr
s                   x[bohr]                   y[bohr]                   z[bohr]                      q[e]
-        1.8124649796672692       -2.0824119847657974       -1.7235188617220509       -0.4659402415114741
+        1.6869322112671301       -2.4072427112498729       -1.2578903446199243        0.9999999972120966
-        1.5942495747929022       -2.7448763491233215       -0.8777557849380206       -0.4760048829968415
