2
s                      x[A]                      y[A]                      z[A]                      q[e]
O        1.7747766049598515        0.8407234959038683        1.2173792723087242       -0.9574802179187276
N        1.7690676701229318        0.8713998680952851        1.1944476960019665        0.9999999980365106

        RMSE         4.761133231E-01 kcal/mol
         MAE         3.713966307E-01 kcal/mol
     max. AE         2.511147267E+00 kcal/mol

Coordinates in bohr
s                   x[bohr]                   y[bohr]                   z[bohr]                      q[e]
-        3.3538417172439785        1.5887371544957773        2.3005134154726359       -0.9574802179187276
+        3.3430533939341149        1.6467070964601658        2.2571790166278261        0.9999999980365106
