4
s                      x[A]                      y[A]                      z[A]                      q[e]
O        1.4475343286132665       -0.2718379719515076        0.4241856549845442       -0.9946042730156233
N        2.2398200107653192       -0.4438190421079731        0.2232811139346823        0.2280171673880729
N        1.4465096681024734       -0.1305566846806052        0.4121285437198097        0.9999999944126597
O        1.5482882576415793       -0.0330974165855543       -0.1675279866494923       -0.2864944953585202

        RMSE         1.470577861E-01 kcal/mol
         MAE         9.572597222E-02 kcal/mol
     max. AE         1.272781886E+00 kcal/mol

Coordinates in bohr
s                   x[bohr]                   y[bohr]                   z[bohr]                      q[e]
-        2.7354434382775468       -0.5136993174882363        0.8015947142687339       -0.9946042730156233
+        4.2326463906664573       -0.8386964388471048        0.4219401543236951        0.2280171673880729
+        2.7335071105405762       -0.2467163778940994        0.7788100761142132        0.9999999944126597
-        2.9258407702048732       -0.0625450528068833       -0.3165820131168959       -0.2864944953585202
