1
s                      x[A]                      y[A]                      z[A]                      q[e]
N        1.7522630665042922        1.2899054506566909        0.8349632674493050        0.0425197801177830

        RMSE         9.563704538E-01 kcal/mol
         MAE         7.222373816E-01 kcal/mol
     max. AE         4.163023709E+00 kcal/mol

Coordinates in bohr
s                   x[bohr]                   y[bohr]                   z[bohr]                      q[e]
+        3.3112972954480089        2.4375680294764024        1.5778519002965836        0.0425197801177830
