2
s                      x[A]                      y[A]                      z[A]                      q[e]
N        1.9965729892083488       -0.3268929431484856        0.0967027083410577        0.9469183763814610
O        1.8144052685536283       -0.3497882909338144        0.0066340804693937       -0.9999999829548719

        RMSE         8.843868809E-01 kcal/mol
         MAE         6.344649897E-01 kcal/mol
     max. AE         6.348764822E+00 kcal/mol

Coordinates in bohr
s                   x[bohr]                   y[bohr]                   z[bohr]                      q[e]
+        3.7729761390904470       -0.6177381348954938        0.1827416343546254        0.9469183763814610
-        3.4287290381541182       -0.6610040717568727        0.0125365951814028       -0.9999999829548719
