4
s                      x[A]                      y[A]                      z[A]                      q[e]
N       -1.7088731706324305       -1.9077230999912040        0.2524157037768749        0.3693986300784353
N       -1.5757894848230010       -1.4577858870682288        0.2608143560587154        0.5035373392975614
N       -1.3217950332171273       -2.1786928270377346        0.1536437815376779        0.0461164393341583
O       -1.6572499297313539       -1.5995532439610067        0.2259536228657044       -0.9999999992074815

        RMSE         8.709943754E-02 kcal/mol
         MAE         5.660770544E-02 kcal/mol
     max. AE         5.966969567E-01 kcal/mol

Coordinates in bohr
s                   x[bohr]                   y[bohr]                   z[bohr]                      q[e]
+       -3.2293022756380569       -3.6050741821927748        0.4769965499029847        0.3693986300784353
+       -2.9778105576917566       -2.7548160761165468        0.4928677025386147        0.5035373392975614
+       -2.4978306067708034       -4.1171327546007808        0.2903446679858851        0.0461164393341583
-       -3.1317484886264895       -3.0227175541739335        0.4269904642711669       -0.9999999992074815
