2
s                      x[A]                      y[A]                      z[A]                      q[e]
O        1.2077157285597524        0.1328328860089521        0.0295705751159585       -0.4185571659325006
N        0.5579812279668446        0.0156602054757596        0.3544901418089734        0.4261071974573563

        RMSE         1.813547940E+00 kcal/mol
         MAE         1.385138526E+00 kcal/mol
     max. AE         8.621435467E+00 kcal/mol

Coordinates in bohr
s                   x[bohr]                   y[bohr]                   z[bohr]                      q[e]
-        2.2822519643856989        0.2510177750110784        0.0558802883414399       -0.4185571659325006
+        1.0544317040039863        0.0295934994175806        0.6698892821936674        0.4261071974573563
