1
s                      x[A]                      y[A]                      z[A]                      q[e]
N        1.5240785542986255        0.3626864733768547       -1.6785969436125499        0.0060848666291413

        RMSE         1.880978813E+00 kcal/mol
         MAE         1.563849981E+00 kcal/mol
     max. AE         6.297082553E+00 kcal/mol

Coordinates in bohr
s                   x[bohr]                   y[bohr]                   z[bohr]                      q[e]
+        2.8800910613081099        0.6853781040904074       -3.1720884984582964        0.0060848666291413
