2
s                      x[A]                      y[A]                      z[A]                      q[e]
N        0.9562144078016002       -0.1442495717208233        1.8797499458542692        0.9768372738680849
O        0.9169170747572959       -0.1308298714188483        1.8560715158369137       -0.9999989376405798

        RMSE         9.057239228E-01 kcal/mol
         MAE         6.842460167E-01 kcal/mol
     max. AE         3.993406049E+00 kcal/mol

Coordinates in bohr
s                   x[bohr]                   y[bohr]                   z[bohr]                      q[e]
+        1.8069833479618695       -0.2725921842669424        3.5522125820087505        0.9768372738680849
-        1.7327221510472306       -0.2472326260104861        3.5074668341951289       -0.9999989376405798
