36
s                      x[A]                      y[A]                      z[A]                      q[e]
N       -1.7705866051351025        1.1836384472587984        0.0108480258821452        0.5050633758864109
O       -1.8152842737680219        1.1306615711788677        0.0082918006785390       -0.6912510197496105
N       -2.1127977319970741        1.4773358829987346       -0.0248508960359125        0.1206020621530033
O       -2.7459995836258688       -0.3208892258636519        0.2064019161934337       -0.8690976484751518
N       -2.6963433566483426       -0.2969809889553807        0.2014292424335301        0.8823834187835283
N       -3.2093484455096162       -0.5763056363125804        0.0860179204997862        0.1135236674116853
N       -1.7813222397631245        0.2314124534386052        0.1507931973101277        0.9835939845856592
O       -1.8582504015983543       -0.2762971219744144       -0.2438783024825036       -0.8202151309808547
N       -1.9182545466801939       -0.4031270430298063       -0.1337589559739836        0.6738959497115424
O       -1.8032408504453898        0.0669951943876404        0.2817202111145803       -0.8948613574657132
O       -1.1204277797152904       -0.3381535627244142        0.3282502639891854       -0.5634464037191214
O       -0.3410699767388999       -0.3369520550698850        0.0620537388896387       -0.2369323709829831
O       -1.0696933273024496       -0.3045698397355203       -0.4180004220925503       -0.3709088393583702
N       -0.8587753518067988       -0.3066761858416673        0.0250583543335116        0.9899307848810270
N       -0.8013111011940067       -1.8303584914518838        0.0138617729724392        0.1272265581890421
O       -0.8303574921307413       -1.3672700728699665        0.2519018686819227       -0.5113222009859686
N       -0.8513410153892046       -1.2635672115756582        0.0330029078998488        0.9888776845280076
O       -0.8175887188169976       -1.3539757110681838       -0.2367366977323561       -0.4311748023333155
N        1.6883315517283466       -1.1645587536080475        0.0272903967947888        0.4834716912073349
O        1.3671694521770399       -0.6372715870370779       -0.0156441596425574       -0.8571806993094027
N        1.1198911924449033       -0.5784953070367871        0.0252538272245733        0.9843474604914826
O        1.4579422762574372       -0.9950358729188481        0.0349839223972551       -0.9848470247665906
O        0.5345437838309965        0.3262158367232973       -0.1691865411435069       -0.9391369296853367
N        0.2129329228427083        0.4604929101101750       -0.0339278654605482        0.7198766790955324
O        0.5666879975882754        0.3914580719756812        0.4292518313049564       -0.3285833030810611
N        0.9659116607757933       -0.1257358815936061       -0.0338597112308755        0.9786733271292312
N        1.8481942115753573        1.2114925506770275        0.0363219798939814        0.4975568561535211
N        2.0740282026234960        1.6629230137568716        0.0410084655510189        0.2197046304469193
O        1.8122186857547704        1.3437050535200157        0.0424723538605901       -0.6992773250891275
O        0.6997153007827157        1.1399244760131741        0.3032215575054500       -0.7356422382532941
N        0.7316362263814511        1.1793252722026153        0.0174156101271161        0.9841865688665105
O        0.7179943019086874        1.0112909470953035       -0.4394814244107031       -0.4689413882361631
O        0.2347455870350298        1.8707103538098351       -0.1322356363038030       -0.8948899887480556
N        0.1323127092972654        2.0074870620663057       -0.0175281586589458        0.9841595887328067
N        0.4196514106989045        1.5149915914906498       -0.0028543415560687        0.4835638585137096
O        0.1913711495699074        1.9320809549079421        0.1747329810252530       -0.4229294755468345

        RMSE         4.654399779E-01 kcal/mol
         MAE         2.694692508E-01 kcal/mol
     max. AE         4.415106057E+00 kcal/mol

Coordinates in bohr
s                   x[bohr]                   y[bohr]                   z[bohr]                      q[e]
+       -3.3459237651094869        2.2367524968812891        0.0204997979191324        0.5050633758864109
-       -3.4303901172721716        2.1366407101079021        0.0156692323693240       -0.6912510197496105
+       -3.9926090719629173        2.7917602141790181       -0.0469613874801003        0.1206020621530033
-       -5.1891871536741228       -0.6063927534924808        0.3900430933752888       -0.8690976484751518
+       -5.0953504842630277       -0.5612127335932857        0.3806461018578203        0.8823834187835283
+       -6.0647896031769903       -1.0890598171884807        0.1625503116260005        0.1135236674116853
+       -3.3662111743394298        0.4373061590192254        0.2849578444982654        0.9835939845856592
-       -3.5115843315429114       -0.5221258897838590       -0.4608631996334937       -0.8202151309808547
+       -3.6249757321398253       -0.7617997050919871       -0.2527677936180002        0.6738959497115424
-       -3.4076313455794454        0.1266025691144497        0.5323740430127173       -0.8948613574657132
-       -2.1173016470166925       -0.6390176218969680        0.6203030995487927       -0.5634464037191214
-       -0.6445288456527929       -0.6367471014922665        0.1172645715620887       -0.2369323709829831
-       -2.0214274268313503       -0.5755535831747165       -0.7899063180806918       -0.3709088393583702
+       -1.6228502182085451       -0.5795340004407588        0.0473534268450162        0.9899307848810270
+       -1.5142585225456959       -3.4588762602502037        0.0261949545311835        0.1272265581890421
-       -1.5691482463491047       -2.5837659772590040        0.4760255422998763       -0.5113222009859686
+       -1.6088013584547749       -2.3877959709864203        0.0623664572744228        0.9888776845280076
-       -1.5450187618280746       -2.5586432744408869       -0.4473675225594463       -0.4311748023333155
+        3.1904842417358110       -2.2006971013237333        0.0515713757972230        0.4834716912073349
-        2.5835758317068191       -1.2042687670359382       -0.0295631771873737       -0.8571806993094027
+        2.1162876440332541       -1.0931976951621643        0.0477228170740743        0.9843474604914826
-        2.7551116088531336       -1.8803452848224826        0.0661100321250823       -0.9848470247665906
-        1.0101413535065160        0.6164585891941002       -0.3197162268747307       -0.9391369296853367
+        0.4023849072659618        0.8702054828233010       -0.0641143737418163        0.7198766790955324
-        1.0708851140259468        0.7397485456337957        0.8111684000175925       -0.3285833030810611
+        1.8253085002523759       -0.2376063803549094       -0.0639855809134432        0.9786733271292312
+        3.4925808865338857        2.2893891238119206        0.0686385943340107        0.4975568561535211
+        3.9193452794339625        3.1424690637214274        0.0774947687166977        0.2197046304469193
-        3.4245969955136397        2.5392345445464830        0.0802611167000467       -0.6992773250891275
-        1.3222702842716803        2.1541450633709207        0.5730056990200620       -0.7356422382532941
+        1.3825920913244061        2.2286017772939468        0.0329107334479992        0.9841865688665105
-        1.3568125902467019        1.9110629231649856       -0.8304995293623253       -0.4689413882361631
-        0.4436048686560303        3.5351302287589026       -0.2498891366398361       -0.8948899887480556
+        0.2500347834891494        3.7936007477052787       -0.0331234193489797        0.9841595887328067
+        0.7930262343829526        2.8629191902888143       -0.0053939238094830        0.4835638585137096
-        0.3616390610011516        3.6511038569890464        0.3301974792225476       -0.4229294755468345
