12
s                      x[A]                      y[A]                      z[A]                      q[e]
N       -1.8989370486224169        1.2341588915603972        0.0681659827981658        0.8034993176866088
O       -1.9489569875695367        1.3585711699660061       -0.1102920903683446       -0.7654473082389652
O       -1.8677957220380326        1.2031475550609352        0.1585940337894789       -0.5775926897799735
N       -2.1206691178331480        1.4464529865277078       -0.1527231523796163        0.4590934137774778
N       -0.6109688114695494        0.9650290309122282        0.1899188605745805        0.7659896858221484
O       -0.8185792636136248        0.8649922756731118        0.3760175763039137       -0.8560508150786371
N       -1.1683060873403559        1.0460498416724600        0.0625693051669759        0.6792781094375290
O       -0.7503076659283280        0.9389756635316210       -0.1367647142504119       -0.7735813083019023
O       -0.4148580676799505        1.8970715786560055        0.1197093097277753       -0.4788342457844153
N       -0.4453207330171149        1.8781223776621372        0.2713869239037677        0.9443302123978256
O       -0.4067284922009616        1.9797489619967688        0.4248769356528514       -0.8158102285201023
N       -0.2888067808204292        2.1551371234699821        0.4280103987975104        0.4232227139894983

        RMSE         3.077253255E-02 kcal/mol
         MAE         1.685716994E-02 kcal/mol
     max. AE         5.450181148E-01 kcal/mol

Coordinates in bohr
s                   x[bohr]                   y[bohr]                   z[bohr]                      q[e]
+       -3.5884709513815634        2.3322223003477571        0.1288150385612029        0.8034993176866088
-       -3.6829949368037411        2.5673274331785692       -0.2084218446004165       -0.7654473082389652
-       -3.5296223729536380        2.2736193675793599        0.2996992889937198       -0.5775926897799735
+       -4.0074838354209055        2.7333999978879095       -0.2886049310140377        0.4590934137774778
+       -1.1545637248739258        1.8236405715400879        0.3588946325449676        0.7659896858221484
-       -1.5468906202086972        1.6345985016586990        0.7105702375728382       -0.8560508150786371
+       -2.2077785357784858        1.9767477143394723        0.1182388506257778        0.6792781094375290
-       -1.4178759984360458        1.7744068425448034       -0.2584478535597780       -0.7735813083019023
-       -0.7839681288517543        3.5849457240497786        0.2262178100530998       -0.4788342457844153
+       -0.8415342233904726        3.5491369238751145        0.5128469602085854        0.9443302123978256
-       -0.7686054576802276        3.7411833353333108        0.8029010454076578       -0.8158102285201023
+       -0.5457657189257379        4.0726189261652586        0.8088224325752792        0.4232227139894983
