5
s                      x[A]                      y[A]                      z[A]                      q[e]
N       -0.5510662614066433        1.0816040497075052        0.2871948986348314        0.9647238666213300
O       -0.6722410046065920        0.9680788338119580        0.3861074825875746       -0.9998100497139332
N       -2.2483717998470203        1.4692622441419387       -0.1538259803174406        0.1123242582808698
O       -0.5953823984032279        1.0150462321450568       -0.2355725137629629       -0.3372425571483555
N       -0.1544745042589968        2.4468917915884800        0.4316759841259342        0.0681013393671810

        RMSE         1.295710351E-01 kcal/mol
         MAE         8.140981613E-02 kcal/mol
     max. AE         1.294189952E+00 kcal/mol

Coordinates in bohr
s                   x[bohr]                   y[bohr]                   z[bohr]                      q[e]
+       -1.0413643110385067        2.0439354301332600        0.5427197030484537        0.9647238666213300
-       -1.2703513890090932        1.8294038637572041        0.7296373970804932       -0.9998100497139332
+       -4.2488069299135534        2.7765032479038196       -0.2906889737800291        0.1123242582808698
-       -1.1251096729003209        1.9181593834320454       -0.4451675336976447       -0.3372425571483555
+       -0.2919145064153728        4.6239553447330621        0.8157493849354966        0.0681013393671810
