9
s                      x[A]                      y[A]                      z[A]                      q[e]
O       -2.1572253200346130        1.4648197044234990       -0.4341495840536707       -0.0802813522883399
O       -1.9790577516919119        1.2425595531511082        0.0996002723266848       -0.0757494986673209
N       -2.2340926923674309        1.4662158988711662       -0.2261374391064822        0.2056410863510554
N       -0.5357704196369161        1.0009825092349789        0.0215145136986026        0.9218376555528689
O       -0.8768527155689678        0.8561632496490379        0.3972282306339717       -0.5138975344805695
N       -1.2715879605236482        0.9590860384839205        0.1232297096738099        0.2655900161928191
O       -0.6124262813248074        0.9560998841003122       -0.1123298718790368       -0.9970020837695932
O       -0.1719782733912603        2.2701483062162859        0.0968565643364335       -0.7350721928192842
N       -0.1727301487176523        2.2773094094674931        0.1381189067328691        0.8170307613354562

        RMSE         4.828421432E-02 kcal/mol
         MAE         2.417512971E-02 kcal/mol
     max. AE         7.785756118E-01 kcal/mol

Coordinates in bohr
s                   x[bohr]                   y[bohr]                   z[bohr]                      q[e]
-       -4.0765650457685325        2.7681080645344998       -0.8204238113428709       -0.0802813522883399
-       -3.7398771371620372        2.3480972500268540        0.1882172367184506       -0.0757494986673209
+       -4.2218233274611530        2.7707464896584759       -0.4273378266236482        0.2056410863510554
+       -1.0124593592353841        1.8915827988276712        0.0406565386127696        0.9218376555528689
-       -1.6570114847893207        1.6179140605186597        0.7506525651984040       -0.5138975344805695
+       -2.4029529898191755        1.8124099434849166        0.2328704018031818        0.2655900161928191
-       -1.1573179437364740        1.8067669295315616       -0.2122726935591465       -0.9970020837695932
-       -0.3249918362385934        4.2899585629207531        0.1830323800486454       -0.7350721928192842
+       -0.3264126746859636        4.3034910868216603        0.2610069064727758        0.8170307613354562
