12
s                      x[A]                      y[A]                      z[A]                      q[e]
O        1.8262620532531497        1.2391006216368592       -0.1723822200322399       -0.3518793384087391
O        1.8341159079563603        1.5268118370005535        0.0010209248492143       -0.7101013659874749
N        2.0128623134939301        1.6263788048526353       -0.0012066257678468        0.5001417701751161
N        1.7539396520076160        1.2305283753137022       -0.1065019608027988        0.6394985538938861
O        1.2330132274115282        1.4713817709670431       -0.2516456608077703       -0.2186943192533262
N        0.9095991138683319        1.2761198178345448       -0.1705247152747790        0.9455762026199397
O        0.8515872950799885        1.1245041285363151        0.4296518282800296       -0.3212034085826680
O        0.8296064371326597        1.0280066136729866       -0.4694595945779961       -0.5393714492533925
O        0.3058602784603209        1.9759750272654131       -0.1450432475894290       -0.9994881874091480
N        0.1567151352301231        2.0609064443842371       -0.0248193040376367        0.9995891980706560
N        0.4831442594030692        1.9429158708082965       -0.0273959464978363        0.5186488078498134
O        0.2580904259207835        2.0375243615228342        0.1565487710467423       -0.5093340852068149

        RMSE         6.979167547E-02 kcal/mol
         MAE         4.046019743E-02 kcal/mol
     max. AE         8.114199410E-01 kcal/mol

Coordinates in bohr
s                   x[bohr]                   y[bohr]                   z[bohr]                      q[e]
-        3.4511351139647326        2.3415608167782080       -0.3257551847593435       -0.3518793384087391
-        3.4659767483829391        2.8852562170382048        0.0019292683596894       -0.7101013659874749
+        3.8037585007589652        3.0734105174209039       -0.0022801922371507        0.5001417701751161
+        3.3144655828752039        2.3253616189474786       -0.2012595377415345        0.6394985538938861
-        2.3300573088746392        2.7805085731188282       -0.4755413795865427       -0.2186943192533262
+        1.7188932091702767        2.4115169589764238       -0.3222450094910075        0.9455762026199397
-        1.6092667596206189        2.1250048298802624        0.8119242847514925       -0.3212034085826680
-        1.5677289580975744        1.9426509550012756       -0.8871500607208794       -0.5393714492533925
-        0.5779921589462746        3.7340516322756954       -0.2740920142909922       -0.9994881874091480
+        0.2961486852990202        3.8945487500772935       -0.0469016872556030        0.9995891980706560
+        0.9130103293589538        3.6715788806330845       -0.0517708358286061        0.5186488078498134
-        0.4877202205930427        3.8503630172264804        0.2958343025553449       -0.5093340852068149
