3
s                      x[A]                      y[A]                      z[A]                      q[e]
N        1.6846193433509322        1.5970215580484743       -0.0551163478900414        0.3684634029042568
O        0.8432094289845913        1.5934323180622456       -0.0809309006268993       -0.9431434742567792
N        0.3812461239148087        1.9444038711990921       -0.0620408585283917        0.5280624498603701

        RMSE         5.148220713E-01 kcal/mol
         MAE         3.695684161E-01 kcal/mol
     max. AE         3.651117562E+00 kcal/mol

Coordinates in bohr
s                   x[bohr]                   y[bohr]                   z[bohr]                      q[e]
+        3.1834691845818677        3.0179333611635673       -0.1041548025476336        0.3684634029042568
-        1.5934348871845594        3.0111506805910531       -0.1529372372714829       -0.9431434742567792
+        0.7204507605913465        3.6743907938462623       -0.1172402312069349        0.5280624498603701
