5
s                      x[A]                      y[A]                      z[A]                      q[e]
N        2.2943632024402127        1.6754894704395495        0.0136052130160290        0.0645388253929693
O        0.9965825979236659        1.1382596979843269        0.3768999275824630       -0.5526746795962257
N        1.0499205401240361        1.1146614307233480        0.0204357306260691        0.9999122081589561
O        0.9294790722220074        1.0730519973251005       -0.3304797684540167       -0.6488196489864720
N       -0.2011052170305330        2.2655843248033980       -0.0110032167658956        0.0904256735386201

        RMSE         1.631526876E-01 kcal/mol
         MAE         1.011030339E-01 kcal/mol
     max. AE         1.517568172E+00 kcal/mol

Coordinates in bohr
s                   x[bohr]                   y[bohr]                   z[bohr]                      q[e]
+        4.3357180849403578        3.1662162252191184        0.0257101264788088        0.0645388253929693
-        1.8832681714729858        2.1509990888367199        0.7122376398357438       -0.5526746795962257
+        1.9840622743271852        2.1064048266781117        0.0386179340569014        0.9999122081589561
-        1.7564608858442310        2.0277743933199459       -0.6245162523828092       -0.6488196489864720
+       -0.3800337825884648        4.2813338880087146       -0.0207930661865884        0.0904256735386201
