7
s                      x[A]                      y[A]                      z[A]                      q[e]
N        2.2515725298399700        1.6968904760675647        0.0466720210873074        0.0794668390116727
O        0.9637873341082344        1.1114467703724082        0.2807849711317984       -0.5057203521955007
N        1.0999739415905423        0.9812661816679425       -0.0136671350235009        0.6019742766134797
O        0.9088032341743627        0.9799294573669152       -0.4471705389920310       -0.3873823368522318
N       -0.0624114767220459        2.1795496213421379       -0.2092922706379374        0.1804948161646144
N        0.2272911510369625        1.9123058635884518       -0.3326700945378867        0.9825702787120068
O        0.1884620258484438        1.9568165015371322       -0.3647177363751866       -0.9980211429461934

        RMSE         1.376901596E-01 kcal/mol
         MAE         8.280805919E-02 kcal/mol
     max. AE         1.690776594E+00 kcal/mol

Coordinates in bohr
s                   x[bohr]                   y[bohr]                   z[bohr]                      q[e]
+        4.2548554330017669        3.2066582646654487        0.0881973375766035        0.0794668390116727
-        1.8212941046496831        2.1003299990284674        0.5306066955836816       -0.5057203521955007
+        2.0786494947464709        1.8543243395261584       -0.0258271421140693        0.6019742766134797
-        1.7173892145198617        1.8517982966919726       -0.8450298500682993       -0.3873823368522318
+       -0.1179405980900532        4.1187518611819547       -0.3955050716809007        0.1804948161646144
+        0.4295180261999292        3.6137343502892909       -0.6286553688067700        0.9825702787120068
-        0.3561416139025128        3.6978472656817072       -0.6892166348460310       -0.9980211429461934
