8
s                      x[A]                      y[A]                      z[A]                      q[e]
O        2.0816222714038561        1.5415016152377361        0.2398899870722009       -0.0738074955140169
N        2.2000181395122911        1.6293986600572596        0.0902495807029547        0.1389269800980683
O        0.9705126197150439        1.0472373454053581        0.3959436173225230       -0.6032296013680019
N        1.0246417363431006        1.0091056879531866        0.0997106088010909        0.9942913301127880
O        0.9056999252375324        0.9808384220162478       -0.2842272739453828       -0.5881808442030948
N       -0.2760766009529823        2.0880960919563436       -0.0535617474745114        0.0914359693247626
N        0.2609459178770280        2.3567917173337523       -0.2787586675027912        0.8360388680144815
O        0.2617751718991135        2.3337877840097789       -0.2880207917401281       -0.8420928279571392

        RMSE         1.255950011E-01 kcal/mol
         MAE         7.428672216E-02 kcal/mol
     max. AE         1.481569611E+00 kcal/mol

Coordinates in bohr
s                   x[bohr]                   y[bohr]                   z[bohr]                      q[e]
-        3.9336959896067327        2.9130158747501906        0.4533263758060786       -0.0738074955140169
+        4.1574317547175017        3.0791172166961820        0.1705469904659882        0.1389269800980683
-        1.8340030525620366        1.9789917711676086        0.7482249978626484       -0.6032296013680019
+        1.9362922584020290        1.9069333818732312        0.1884257424367268        0.9942913301127880
-        1.7115248105465668        1.8535159909369341       -0.5371117051422490       -0.5881808442030948
+       -0.5217091654484463        3.9459297374362938       -0.1012170335277591        0.0914359693247626
+        0.4931163183437928        4.4536908805082129       -0.5267775366778366        0.8360388680144815
-        0.4946833813339688        4.4102197467176101       -0.5442804148263682       -0.8420928279571392
