1
s                      x[A]                      y[A]                      z[A]                      q[e]
N       -0.6826691086683843       -1.0767951924813046       -0.1359011682832338        0.0287328611330642

        RMSE         3.498692228E+00 kcal/mol
         MAE         2.911362923E+00 kcal/mol
     max. AE         1.167870531E+01 kcal/mol

Coordinates in bohr
s                   x[bohr]                   y[bohr]                   z[bohr]                      q[e]
+       -1.2900576496936549       -2.0348480069993120       -0.2568159881850677        0.0287328611330642
