27
s                      x[A]                      y[A]                      z[A]                      q[e]
N       -1.9502815816938917        1.4218254517049262        0.0293752676846037        0.0711820025925504
N       -3.2526700914962365       -0.7360148537134439       -0.0413048980702503        0.0628269411187501
O       -1.5184764357292497       -0.0987888826404202       -0.3455423130696502       -0.5331221501956198
N       -1.9838466662490055       -0.4546348679259292        0.1577381678044895        0.2542432645093249
N       -1.4405607060910766        0.0539585899654491       -0.0719606949045008        0.8272946104574345
O       -1.6524575074889964       -0.1871310281173013        0.2492021295542159       -0.6836881484754137
O       -1.0687193667999157       -0.5740780560987465        0.3942549401471794       -0.3540459451139372
O       -1.1631982098757359       -0.5587212883535243       -0.3382471471268940       -0.6345498440744678
N       -1.1104489444840320       -0.6942793871789339       -0.0942002988063626        0.9940996157271176
N       -0.7068641231353142       -1.9267690732530571        0.0620408175786916        0.2599067389576232
O       -0.7083239782994785       -1.5936597986883951       -0.3457040334819288       -0.1238871122500556
O       -0.6995566195196256       -1.8232942272020123        0.2579702078912320       -0.1652485500982381
N        0.7264146710643214        0.9013727638634891       -0.0861364796054799        0.9989763516810798
O        0.7192218271785688        0.9952305034494838       -0.0964379644171650       -0.8323783919725438
N        0.5042471630841460        1.7719492988111880       -0.0064073246794374        0.3004192041819779
O        0.5014884185073029        1.3772545794863655        0.0023851434075063       -0.8775264671839280
N        0.5357019332721851       -0.3994032610183520       -0.0815705843127969        0.8864886836934326
O        0.6548491751801585       -0.2222308574917782       -0.2437131440104529       -0.9934576601111302
O        0.7770957894033697       -0.2554985271691605        0.4084363449163340       -0.3328148423923962
N        0.5997717261362598        0.3387253304029993       -0.0132037986785905        0.9903541802557858
N        2.6684945483484612       -0.0488739063212570       -0.1716855520856725        0.8412244781488348
O        2.5649917819767052       -0.1012679780280387       -0.2017809627550515       -0.9917437060597984
N        1.9550048828763926       -0.3649065007089902       -0.1759963921005537        0.8110366803807667
O        1.6094861845462070       -0.5279101313098548       -0.3466291357711282       -0.6750347670021010
N        1.3637820939609144       -0.8390536459008079        0.0408186268557032        0.4490293011963403
O        1.5045545738363331       -0.5920877750933060        0.2727399148474055       -0.6223462033458053
N        1.7853435061721716       -2.1120505029595100        0.0206743298072351        0.0727617353744172

        RMSE         4.913846440E-01 kcal/mol
         MAE         2.905156804E-01 kcal/mol
     max. AE         4.508130615E+00 kcal/mol

Coordinates in bohr
s                   x[bohr]                   y[bohr]                   z[bohr]                      q[e]
+       -3.6854980569261628        2.6868607019276767        0.0555112107859128        0.0711820025925504
+       -6.1466556493957425       -1.3908664977873164       -0.0780549449927246        0.0628269411187501
-       -2.8695045914896480       -0.1866839324303893       -0.6529803364588459       -0.5331221501956198
+       -3.7489268741131623       -0.8591353874636977        0.2980819366819947        0.2542432645093249
+       -2.7222652016082831        0.1019669571505758       -0.1359860051671352        0.8272946104574345
-       -3.1226921231108813       -0.3536263927170478        0.4709237747383282       -0.6836881484754137
-       -2.0195869082245483       -1.0848503006618460        0.7450338604869372       -0.3540459451139372
-       -2.1981260462879559       -1.0558302154511114       -0.6391944707872694       -0.6345498440744678
+       -2.0984443813785445       -1.3119978963188821       -0.1780127656803173        0.9940996157271176
+       -1.3357796006376426       -3.6410658554504698        0.1172401538232168        0.2599067389576232
-       -1.3385383270807483       -3.0115805566733234       -0.6532859437469486       -0.1238871122500556
-       -1.3219704201431981       -3.4455267355400836        0.4874930414418482       -0.1652485500982381
+        1.3727247818261028        1.7033476606489650       -0.1627743558654407        0.9989763516810798
-        1.3591322768188565        1.8807130832210368       -0.1822413408450891       -0.8323783919725438
+        0.9528890377681049        3.3484988829501816       -0.0121080888410236        0.3004192041819779
-        0.9476757660677791        2.6026339602618198        0.0045072678101282       -0.8775264671839280
+        1.0123299387627143       -0.7547627769394319       -0.1541460642447528        0.8864886836934326
-        1.2374855945724554       -0.4199554572851088       -0.4605510953540189       -0.9934576601111302
-        1.4684982152188222       -0.4828222418075593        0.7718328315749009       -0.3328148423923962
+        1.1334043001906280        0.6400981062168826       -0.0249515633182181        0.9903541802557858
+        5.0427238636558744       -0.0923582976284579       -0.3244386731399460        0.8412244781488348
-        4.8471319819860090       -0.1913687437518740       -0.3813107569382538       -0.9917437060597984
+        3.6944238025691405       -0.6895733477391742       -0.3325849801387360        0.8110366803807667
-        3.0414880915004066       -0.9976055670301051       -0.6550341337115696       -0.6750347670021010
+        2.5771746523895227       -1.5855815953193981        0.0771360255745369        0.4490293011963403
-        2.8431960853555873       -1.1188837371580191        0.5154037425422856       -0.6223462033458053
+        3.3738102665300320       -3.9911970137289319        0.0390688211630637        0.0727617353744172
