13
s                      x[A]                      y[A]                      z[A]                      q[e]
N       -0.4616116933977871        0.2342993052090293       -0.0485546881713932        0.9441043273329091 
O        0.3152881737399255       -0.7997456334733701       -0.0302645070543979       -0.9187115142224083 
O        2.1276464828688688        0.1143273883565424       -0.9221797362599344       -0.4276716080017869 
N        2.0619562666203017        0.2423762925039567       -0.8520514147636985        0.5010594401181871 
O       -0.4106257765699911        1.3179914034121423       -0.0177701648059476       -0.7450171008910654 
N       -2.1793871689286055       -0.1440369103411383       -0.2113059541626634        0.1498539131672048 
O        0.1786223212239250       -1.7874517346286829        0.1418883285127112       -0.0502381799671099 
N        0.4381344606124233       -1.6292395501545915       -0.0079080279183023        0.5195570633377683 
O        1.8877128675691068        0.3636207376022501       -0.3203254080446409       -0.4176246700326593 
N        1.8315869960604672        0.1305910975999406       -0.2047740794338116        0.5857505374088972 
N       -2.3143449902431623       -0.3060387623839277       -1.0601094261974082        0.7540065474941502 
O       -2.2103233358451844       -0.3478837236127889       -0.8926787696949714       -0.9951636198988756 
N       -1.8014840010880890       -1.3731616765228689       -0.3183975408658704        0.1000948641547894 

        RMSE         8.027408232e-01 kcal/mol
         MAE         5.380383943e-01 kcal/mol
     max. AE         9.316063605e+00 kcal/mol

Coordinates in bohr
s                   x[bohr]                   y[bohr]                   z[bohr]                      q[e]
+       -0.8723196136554534        0.4427614861644260       -0.0917550561058507        0.9441043273329091 
-        0.5958082558145693       -1.5113001078439976       -0.0571916255128637       -0.9187115142224083 
-        4.0206688532306858        0.2160474369861232       -1.7426670137706919       -0.4276716080017869 
+        3.8965323443890147        0.4580247789652424       -1.6101437021023588        0.5010594401181871 
-       -0.7759702015733692        2.4906426077793120       -0.0335807422555043       -0.7450171008910654 
+       -4.1184445723457639       -0.2721902927892971       -0.3993103531271054        0.1498539131672048 
-        0.3375472425609084       -3.3777939962959724        0.2681300618694847       -0.0502381799671099 
+        0.8279540767205393       -3.0788163195821046       -0.0149440058757902        0.5195570633377683 
-        3.5672600648599713        0.6871435578408732       -0.6053272483908574       -0.4176246700326593 
+        3.4611975468372704        0.2467813910144068       -0.3869668996977145        0.5857505374088972 
+       -4.3734778746487173       -0.5783294027958882       -2.0033163334450759        0.7540065474941502 
-       -4.1769054509556911       -0.6574049135220267       -1.6869182705640615       -0.9951636198988756 
+       -3.4043111349032724       -2.5948993066748116       -0.6016841076805658        0.1000948641547894 

total molecule built from fragment files: /home/boittier/pydcm/models/amide1_test2/3-fragfit/frag1/fit1/8charges.xyz /home/boittier/pydcm/models/amide1_test2/3-fragfit/frag2/fit1/5charges.xyz 