15
s                      x[A]                      y[A]                      z[A]                      q[e]
N        0.0280476017956436        0.3861637615044726       -0.0718057372938921        0.9881762575715962 
O        0.1842463544930021       -0.6238566805982415       -0.0383984923431048       -0.9999999995670006 
O       -0.3518096712518518        1.2497701787851936        0.0079852235627636       -0.8682745526320615 
O       -1.6505481078597226       -0.7925460717357836        0.1523290212969476       -0.5088713556558200 
N       -1.5395769581381418       -0.4381684546418484        0.0390078351781394        0.9963496283515629 
N        0.3561122083030163       -1.7087830861763122        0.0029528136078641        0.3655563628054216 
N       -2.5430470316784177       -0.0531216151599932        1.1958309031223158        0.0429994409592457 
N       -2.7002656117127821       -0.0013295985684162        0.7865575514887184        0.0093723008894682 
O        1.9506847578281270       -0.0096010153657401        0.2413498541162739       -0.5419266940642997 
N        2.3971823545731219       -0.3720065157424320       -0.0722308353927826        0.2341469262332191 
N        1.5126229431936162       -0.1815692467893901        0.1493856283412214        0.3827003176960984 
N       -2.3664836572865862       -0.1306267024389905       -0.7239530949800014        0.6690554843068177 
O       -2.2408532904081371       -0.1820024554072627       -0.5186495317948884       -0.9274757192750469 
N        2.0246064426948402        0.7091690490595746        1.0614984854067535        0.1042380025312279 
N       -1.7599340483754446       -1.9456186886904336        0.0423094991108113        0.0539535998495713 

        RMSE         7.284786287e-01 kcal/mol
         MAE         4.708375674e-01 kcal/mol
     max. AE         1.034655766e+01 kcal/mol

Coordinates in bohr
s                   x[bohr]                   y[bohr]                   z[bohr]                      q[e]
+        0.0530022820311317        0.7297436959705341       -0.1356931678948521        0.9881762575715962 
-        0.3481751243902345       -1.1789181824882264       -0.0725626289038232       -0.9999999995670006 
-       -0.6648238788054467        2.3617231866276485        0.0150898844913355       -0.8682745526320615 
-       -3.1190836548570737       -1.4976949089219502        0.2878601103628447       -0.5088713556558200 
+       -2.9093785892433806       -0.8280183161214012        0.0737141198951553        0.9963496283515629 
+        0.6729544948879467       -3.2291318068274908        0.0055800086142725        0.3655563628054216 
+       -4.8056620659947935       -0.1003852967242469        2.2597927356012488        0.0429994409592457 
+       -5.1027621025765209       -0.0025125769691414        1.4863782465778137        0.0093723008894682 
-        3.6862596824337088       -0.0181432882535870        0.4560850916683415       -0.5419266940642997 
+        4.5300177948501688       -0.7029903807270087       -0.1364964868200300        0.2341469262332191 
+        2.8584428867055980       -0.3431161243884376        0.2822979041997468        0.3827003176960984 
+       -4.4720056687716374       -0.2468486744040793       -1.3680729781111127        0.6690554843068177 
-       -4.2345986995240796       -0.3439347699721169       -0.9801054992080226       -0.9274757192750469 
+        3.8259514114474360        1.3401351823186265        2.0059412747326797        0.1042380025312279 
+       -3.3257931094370874       -3.6766861999241653        0.0799533600343487        0.0539535998495713 

total molecule built from fragment files: /home/boittier/pydcm/models/amide1_test2/3-fragfit/frag1/fit1/6charges.xyz /home/boittier/pydcm/models/amide1_test2/3-fragfit/frag2/fit1/9charges.xyz 