20
s                      x[A]                      y[A]                      z[A]                      q[e]
N        0.0620133920967842        0.0321485302375985        0.0849569794086633        0.3020585497195656 
N       -0.8687826673058757        0.1407172363566144        0.0017797299285310        0.6027522931918731 
O        0.3612907500950798       -0.7114917161167308        0.4491262775573056       -0.3137555996753242 
O        0.6660278569657160       -0.8565412428783182       -0.4637082202075349       -0.2936535764829500 
N        1.9084979679721961        0.8342008229740019       -0.8245759944684757        0.0534451075287574 
O       -0.4475113102527878        1.3622245374366657        0.0443808070181324       -0.6597109197722923 
O       -2.1717702645892425       -0.7017561967555809        0.2784171624327514       -0.9620108769495485 
N       -2.2316452923215762       -0.6363706674947015        0.2349829430683737        0.9999988668138688 
O        0.4240839721662506       -1.2822230729727579        0.0022471605788249       -0.3238951195089597 
N        0.5182782998992619       -1.5866516948105578       -0.0031707443477264        0.5677076160087083 
N       -2.3625819468780862       -0.0354334220441693        0.6218908441900046        0.0501399832234511 
O        1.7381649761652518        0.1801760617632139        0.0592511653898208       -0.6426864596438898 
N        1.7712539562965399       -0.0596679361157905       -0.0329882847465054        0.7360718790758521 
N        2.8021365503203524       -1.0792809899492419        0.0477570136824038        0.9068909700457384 
O        2.7669291883597555       -1.0431860844430736        0.0637471543562585       -0.9458128056318982 
N       -2.3957567999493983       -0.0454904838427682       -0.8671107963141353        0.7506085117837926 
O       -2.2991282620359894       -0.0870824055172792       -0.7014751697766812       -0.9713457976914068 
N        1.7590678916223168        0.6902097343014718        0.8687492873261358        0.1082006961738692 
N       -1.8599744749030831       -1.8603880990244526        0.0617016573834445        0.8989445876425981 
O       -1.8708402698223219       -1.8479306225152268        0.0685035824730896       -0.8639479058518050 

        RMSE         5.606952488e-01 kcal/mol
         MAE         3.509368816e-01 kcal/mol
     max. AE         5.531755464e+00 kcal/mol

Coordinates in bohr
s                   x[bohr]                   y[bohr]                   z[bohr]                      q[e]
+        0.1171883186865349        0.0607519130852828        0.1605454119015061        0.3020585497195656 
+       -1.6417611848531408        0.2659170185870630        0.0033632018986343        0.6027522931918731 
-        0.6827405198954603       -1.3445243866193997        0.8487255988632173       -0.3137555996753242 
-        1.2586101504396769       -1.6186282469749027       -0.8762814748536303       -0.2936535764829500 
+        3.6065382092673492        1.5764109748854793       -1.5582226863227684        0.0534451075287574 
-       -0.8456737531771307        2.5742311107026810        0.0838675644172061       -0.6597109197722923 
-       -4.1040507102629897       -1.3261269226701162        0.5261321475214379       -0.9620108769495485 
+       -4.2171981062369266       -1.2025661887474666        0.4440533743940200        0.9999988668138688 
-        0.8014025035512827       -2.4230502641791749        0.0042465177463628       -0.3238951195089597 
+        0.9794039726470599       -2.9983369425397468       -0.0059918379971051        0.5677076160087083 
+       -4.4646325052127036       -0.0669594585018989        1.1752032903382450        0.0501399832234511 
-        3.2846555279337757        0.3404833864375441        0.1119684670919812       -0.6426864596438898 
+        3.3471846336241402       -0.1127560495641338       -0.0623388190048082        0.7360718790758521 
+        5.2952702627463211       -2.0395453357090179        0.0902476698935643        0.9068909700457384 
-        5.2287379958593343       -1.9713358547179503        0.1204646542863174       -0.9458128056318982 
+       -4.5273238872295494       -0.0859645495516675       -1.6386018067904626        0.7506085117837926 
-       -4.3447224278941601       -0.1645618848558065       -1.3255958586845917       -0.9713457976914068 
+        3.3241563105105003        1.3043072724941922        1.6416981058379274        0.1082006961738692 
+       -3.5148421033569943       -3.5156237396086580        0.1165992254971881        0.8989445876425981 
-       -3.5353754784026781       -3.4920825224968004        0.1294530001116009       -0.8639479058518050 

total molecule built from fragment files: /home/boittier/pydcm/models/amide1_test2/3-fragfit/frag1/fit1/10charges.xyz /home/boittier/pydcm/models/amide1_test2/3-fragfit/frag2/fit1/10charges.xyz 