3
s                      x[A]                      y[A]                      z[A]                      q[e]
O        0.0000426242068453       -0.7712399304955556       -0.2219338916883824       -0.9999999974638617
N        0.0000438642243645       -0.7665513149628842       -0.0683499573352445        0.6235492155388651
N        0.0000199685414804       -0.8669518548668204       -0.4794642426071632        0.5929475991511335

        RMSE         1.959687665E-01 kcal/mol
         MAE         1.418935447E-01 kcal/mol
     max. AE         1.233224167E+00 kcal/mol

Coordinates in bohr
s                   x[bohr]                   y[bohr]                   z[bohr]                      q[e]
-        0.0000805480772524       -1.4574322456537310       -0.4193942732480642       -0.9999999974638617
+        0.0000828913707545       -1.4485720463894145       -0.1291627000503395        0.6235492155388651
+        0.0000377350745229       -1.6383015696559537       -0.9060561054776067        0.5929475991511335
