36
s                      x[A]                      y[A]                      z[A]                      q[e]
O       -1.7649206491798679        1.1047126876266586       -0.3092284988354950       -0.9141805802292311
N       -1.9094247030249989        1.3616794947338184       -0.2099987128713764        0.1906190479204973
N       -1.7261810171572465        1.0373651534943835       -0.2898044575214271        0.8465376330253848
N       -2.9993218242572102       -0.7514055479243034        0.0318566973019969        0.4270449896746761
N       -2.5786478324353790       -0.7884233858234692        0.0556966753799595        0.5737521747527303
O       -2.7498060964649635       -0.7383810721188976        0.0456497661401397       -0.9641955573844404
O       -1.7087648062111631       -0.1659457316764423        0.2124088282711711       -0.6049499773582969
N       -1.4060242994640233        0.0193628717980189       -0.1446059259245231        0.9478509872819576
N       -2.2065317433083171       -0.2473170562932459        0.0623610885450554        0.3148244888262059
O       -1.4755870568694966       -0.0681738769197903       -0.2923722998663116       -0.8089382403576220
O       -0.7557608220437304       -0.9773783053005389       -0.2339501946813097       -0.4390545293467791
O       -1.1010462832331620       -0.4602997603042319       -0.4059379650848610       -0.5548365722175952
O       -0.9692723428717270       -0.5687491485265056        0.3702484230754410       -0.3185840925466885
N       -0.9518414720791163       -0.6000088719092009       -0.2096195485804643        0.9424188820705743
O       -0.8510172190807442       -1.5538160968528945        0.2267701938490004       -0.4031130635908396
N       -0.8823399031608333       -1.3997737915116828        0.0159430604593722        0.9962615458640757
N       -0.7926819561844666       -2.0600805148239121       -0.0117666156872123        0.1214754745500656
O       -0.8931820488815837       -1.5959516292114013       -0.1758593758692321       -0.3672384794599354
N        0.7262536684609533        0.8988657603154704       -0.0852236323210527        0.9988013267052673
O        0.7162712476007246        1.0067768157624124       -0.0979516698187016       -0.8220381718001872
N        0.5074115332135324        1.7824895562166949       -0.0064491946896557        0.3000501032484040
O        0.5051551862183508        1.3763430429497081        0.0024458942086231       -0.8828729196191453
N        0.5496911994992060       -0.3986307554828342       -0.0820386791891307        0.8994671718528594
O        0.6517260721374420       -0.2205949993915483       -0.2443532732888224       -0.9980830405328895
O        0.7696977403927855       -0.2563737328855515        0.4127388951571623       -0.3355569490279887
N        0.6009888137746021        0.3339811928062656       -0.0132897837136889        0.9954520558826698
N        2.6734992029056523       -0.0908994310991739       -0.0100148021173916        0.9996647327612159
O        2.6261649094842996       -0.1247668504864949       -0.0105231802822837       -0.9401431984460569
N        1.4175119980222446       -0.2153122857564481       -0.0934471677301915        0.6283766962905395
O        1.3869215299019910       -0.4038023861419165       -0.2271651338413138       -0.8260714600335630
N        1.2971708183945108       -0.9257271429794774        0.0621535681710568        0.4745662267331077
O        1.3500216156110669       -0.5293615193730965        0.2923555246257988       -0.5166087203625402
O        1.6391005111026506       -1.6615942748651686       -0.3067954776380672       -0.1013262488284892
N        1.6937751917872725       -1.9920908503141168       -0.0385759698307753        0.1433220592847957
O        1.7295999050419899       -1.3903855943978278        0.1433765747362911       -0.9943897392927050
N        1.7713862268181579       -1.3646558983544927        0.1111137471386267        0.9916959437099669

        RMSE         4.813799903E-01 kcal/mol
         MAE         2.803693508E-01 kcal/mol
     max. AE         4.268841733E+00 kcal/mol

Coordinates in bohr
s                   x[bohr]                   y[bohr]                   z[bohr]                      q[e]
-       -3.3352166601151865        2.0876044269328298       -0.5843571729855405       -0.9141805802292311
+       -3.6082897459008954        2.5732013156987117       -0.3968400540255571        0.1906190479204973
+       -3.2620093653914162        1.9603360321979066       -0.5476510546523743        0.8465376330253848
+       -5.6678968099546827       -1.4199506947265101        0.0602004331623854        0.4270449896746761
+       -4.8729381773083356       -1.4899042701125267        0.1052514625666532        0.5737521747527303
-       -5.1963804204330506       -1.3953380025266415        0.0862655556960622       -0.9641955573844404
-       -3.2290974965601178       -0.3135919845571876        0.4013945120619174       -0.6049499773582969
+       -2.6570008517257060        0.0365905247006069       -0.2732655961155908        0.9478509872819576
+       -4.1697406819817333       -0.4673615025486712        0.1178453782355800        0.3148244888262059
-       -2.7884554117537137       -0.1288299562890741       -0.5525035734175593       -0.8089382403576220
-       -1.4281809700135217       -1.8469773179821256       -0.4421017949452160       -0.4390545293467791
-       -2.0806759267639459       -0.8698404825888831       -0.7671115779360496       -0.5548365722175952
-       -1.8316592690084204       -1.0747801248024322        0.6996681179952238       -0.3185840925466885
+       -1.7987196970821440       -1.1338524407532966       -0.3961235373591798        0.9424188820705743
-       -1.6081894721113505       -2.9362868723798257        0.4285335597915922       -0.4031130635908396
+       -1.6673807665369569       -2.6451891035507860        0.0301280178698293        0.9962615458640757
+       -1.4979518017808040       -3.8929879694093592       -0.0222356810723470        0.1214754745500656
-       -1.6878694525614797       -3.0159114886877698       -0.3323260569867958       -0.3672384794599354
+        1.3724205310002513        1.6986101105476588       -0.1610493245035055        0.9988013267052673
-        1.3535564895053620        1.9025324512514732       -0.1851018294886194       -0.8220381718001872
+        0.9588688306722246        3.3684170827384183       -0.0121872116932062        0.3000501032484040
-        0.9546049528073317        2.6009114058541889        0.0046220701861411       -0.8828729196191453
+        1.0387658206279005       -0.7533029530469032       -0.1550306353617538        0.8994671718528594
-        1.2315837851601374       -0.4168641334955626       -0.4617607643750242       -0.9980830405328895
-        1.4545179287261039       -0.4844761409149734        0.7799634731710891       -0.3355569490279887
+        1.1357042624977751        0.6311329854575681       -0.0251140514854418        0.9954520558826698
+        5.0521812901214904       -0.1717750297373627       -0.0189252332025254        0.9996647327612159
-        4.9627324392130738       -0.2357751769554202       -0.0198859287023342       -0.9401431984460569
+        2.6787094558125610       -0.4068812515260014       -0.1765895542097825        0.6283766962905395
-        2.6209018490157328       -0.7630759186145897       -0.4292798882130549       -0.8260714600335630
+        2.4512975847016190       -1.7493707671337528        0.1174532215632702        0.4745662267331077
-        2.5511711169530189       -1.0003482929713907        0.5524718728073014       -0.5166087203625402
-        3.0974510580819579       -3.1399581111238648       -0.5797594292649685       -0.1013262488284892
+        3.2007712305727525       -3.7645061241240865       -0.0728980180040891        0.1433220592847957
-        3.2684701271472272       -2.6274479821937864        0.2709424590578262       -0.9943897392927050
+        3.3474348310944393       -2.5788259033806074        0.2099745508653779        0.9916959437099669
