10
s                      x[A]                      y[A]                      z[A]                      q[e]
O       -1.7942888358851028        0.9101471340881279       -0.2413097015175157       -0.7036754765985137
N       -1.8997421226109488        1.3445046614057177       -0.1292647011873253        0.1533309200559285
N       -1.7578092105029346        0.8125200417115469       -0.2202398193695944        0.6734640794933208
N       -3.0460797344567241       -0.7090380373254009       -0.0027016892457095        0.3145668843921621
N       -2.4982526372694798       -0.6255581822670627        0.0460911473946307        0.7153349021941507
O       -2.7003053277716442       -0.6090575286764313        0.0260108350401995       -0.9994304979281978
O       -1.7341960884095280       -0.1585238134250023        0.2667505160485186       -0.5337919661113155
N       -1.4195734907630686        0.0544772694467791       -0.1671713562589337        0.9976954363161588
N       -2.4172980091060312       -0.2489349134744743        0.0759827202660232        0.2898167640334207
O       -1.4696094489788194       -0.0539175334482563       -0.2970683279991567       -0.9058141320645728

        RMSE         9.668669910E-02 kcal/mol
         MAE         5.474924559E-02 kcal/mol
     max. AE         1.331257660E+00 kcal/mol

Coordinates in bohr
s                   x[bohr]                   y[bohr]                   z[bohr]                      q[e]
-       -3.3907144897893922        1.7199288172969043       -0.4560092472840800       -0.7036754765985137
+       -3.5899923207306186        2.5407455844582159       -0.2442748829331881        0.1533309200559285
+       -3.3217779886577943        1.5354403502803944       -0.4161929405288356        0.6734640794933208
+       -5.7562564544305150       -1.3398877030771528       -0.0051054527504857        0.3145668843921621
+       -4.7210132766420552       -1.1821336400239784        0.0870996453839611        0.7153349021941507
-       -5.1028375246030402       -1.1509519238466326        0.0491533545204388       -0.9994304979281978
-       -3.2771556549342584       -0.2995665917364292        0.5040854191562432       -0.5337919661113155
+       -2.6826051125023378        0.1029471193171839       -0.3159080793507250        0.9976954363161588
+       -4.5680312008248620       -0.4704188095312980        0.1435865315700580        0.2898167640334207
-       -2.7771593699549584       -0.1018893715774162       -0.5613777804660816       -0.9058141320645728
