12
s                      x[A]                      y[A]                      z[A]                      q[e]
N       -1.7404134873977080        0.7427632930349305       -0.0426595044118068        0.8060079248773184
O       -1.8506505999890082        0.9684951920465742        0.1200375797692183       -0.8393292586370477
O       -1.7761672406061881        0.8053489872303474       -0.1657908503460922       -0.5657508735957483
N       -1.8864487177278528        1.1225083742192983        0.0696146204487080        0.6497938506054747
N       -2.5567504467403421       -0.3898256553529065        0.1217291354513247        0.8895459298239956
O       -2.6655715000434150       -0.4425455693335095        0.1480459480402610       -0.8991058133024762
N       -3.0665692826662228       -0.6595985924125981        0.0425932416369887        0.2100084489287929
O       -2.6290893799045860       -0.4178901327573155       -0.2347155601307716       -0.1300646392734456
O       -1.6680767827145848       -0.2127203702890847        0.3782694639596563       -0.4844708113512521
N       -1.4832930812223484        0.0538623551505697       -0.1425841837785058        0.9999062633488619
N       -1.9847175277422242       -0.3314522802004010        0.0666637216846059        0.3437424317547798
O       -1.5205503228956720       -0.1000014951216192       -0.2802586045118545       -0.9787865393967120

        RMSE         6.173366199E-02 kcal/mol
         MAE         3.637119445E-02 kcal/mol
     max. AE         7.373984673E-01 kcal/mol

Coordinates in bohr
s                   x[bohr]                   y[bohr]                   z[bohr]                      q[e]
+       -3.2889048362346172        1.4036191998791967       -0.0806147799860748        0.8060079248773184
-       -3.4972227878934334        1.8301906667907077        0.2268381505266199       -0.8393292586370477
-       -3.3564696377558541        1.5218890212801903       -0.3132993012608795       -0.5657508735957483
+       -3.5648714262267434        2.1212334008074003        0.1315525669757543        0.6497938506054747
+       -4.8315581154811982       -0.7366637252941067        0.2300347274917629        0.8895459298239956
-       -5.0372001029078541       -0.8362899240751416        0.2797662957798534       -0.8991058133024762
+       -5.7949760889808326       -1.2464606923972963        0.0804895614893556        0.2100084489287929
-       -4.9682588873694176       -0.7896979014425392       -0.4435481260305868       -0.1300646392734456
-       -3.1522082755653917       -0.4019832411523465        0.7148256885074910       -0.4844708113512521
+       -2.8030176872967121        0.1017850997067195       -0.2694450571633228        0.9999062633488619
+       -3.7505725638285528       -0.6263540332372662        0.1259761764876492        0.3437424317547798
-       -2.8734236702492879       -0.1889754379161673       -0.5296120068304047       -0.9787865393967120
