6
s                      x[A]                      y[A]                      z[A]                      q[e]
N       -1.9833362444149603        1.4453495505400800        0.0395626384048038        0.0646987037833200
N       -3.0398471705130157       -0.7347919378321036        0.0010440899017099        0.0979533063922380
O       -1.4737574221653642        0.0340812751510288       -0.2972988484999373       -0.7907903332417712
O       -1.4621891555079984       -0.1857484654930419        0.2420439852081658       -0.0871870524749841
N       -1.4317985193674567        0.1522537143681727       -0.1278625251806685        0.9977166669591728
O       -1.5779145208635599       -0.0118751973131300        0.3544714903833578       -0.2808943776354341

        RMSE         1.852875007E-01 kcal/mol
         MAE         1.152865329E-01 kcal/mol
     max. AE         1.945484750E+00 kcal/mol

Coordinates in bohr
s                   x[bohr]                   y[bohr]                   z[bohr]                      q[e]
+       -3.7479623166383629        2.7313148060743186        0.0747625513855989        0.0646987037833200
+       -5.7444786155175027       -1.3885555216971106        0.0019730439645880        0.0979533063922380
-       -2.7849979032532706        0.0644042760418158       -0.5618134010788602       -0.7907903332417712
-       -2.7631370475245838       -0.3510137280059031        0.4573968423577990       -0.0871870524749841
+       -2.7057070684405193        0.2877178217395299       -0.2416251543009186        0.9977166669591728
-       -2.9818262938151405       -0.0224408706075884        0.6698540361074046       -0.2808943776354341
