7
s                      x[A]                      y[A]                      z[A]                      q[e]
N       -1.9826827240953213        1.4469700614451282       -0.0057179925040521        0.0723522114247513
N       -1.8487432600669707       -0.5846913420189965        0.0911150849357306        0.1583637631593957
N       -3.1693359300727777       -0.8431938068211019        0.0958780076343630        0.0497968160964411
O       -1.6113151886693025       -0.1230507479921002       -0.1910234632963949       -0.4413282057420219
N       -2.7037702100189409       -0.2868349613870557       -0.0737620499160436        0.0868290697140722
N       -1.4265916417808475        0.1737064557717133        0.0486622780998019        0.6317527034978732
O       -1.6154739301050378       -0.1029478865158947        0.2471994826378619       -0.5562694443679701

        RMSE         1.893447721E-01 kcal/mol
         MAE         1.177464707E-01 kcal/mol
     max. AE         1.786287915E+00 kcal/mol

Coordinates in bohr
s                   x[bohr]                   y[bohr]                   z[bohr]                      q[e]
+       -3.7467273422168237        2.7343771278681777       -0.0108054398200793        0.0723522114247513
+       -3.4936184378126303       -1.1049065043422961        0.1721825564263591        0.1583637631593957
+       -5.9891769074107124       -1.5934053655740774        0.1811831758835008        0.0497968160964411
-       -3.0449444083753905       -0.2325322132377992       -0.3609820291666321       -0.4413282057420219
+       -5.1093852031073919       -0.5420395202278065       -0.1393900727936719        0.0868290697140722
+       -2.6958674958330429        0.3282576276324914        0.0919583782494900        0.6317527034978732
-       -3.0528032907155236       -0.1945433107097538        0.4671393205404265       -0.5562694443679701
