3
s                      x[A]                      y[A]                      z[A]                      q[e]
O       -1.1482921555515782       -0.6046495223505236        0.4278180195345263       -0.3345135527779263
O       -1.1888307284112929       -0.5508141376502590       -0.3743898239303604       -0.3051631422081499
N       -1.0997815576938532       -0.8152838211736181        0.0566340185765932        0.6528144554144695

        RMSE         1.479215311E-01 kcal/mol
         MAE         1.045537151E-01 kcal/mol
     max. AE         1.029357454E+00 kcal/mol

Coordinates in bohr
s                   x[bohr]                   y[bohr]                   z[bohr]                      q[e]
-       -2.1699576860041017       -1.1426219991313815        0.8084588884560218       -0.3345135527779263
-       -2.2465644862258802       -1.0408878661892187       -0.7074942313867585       -0.3051631422081499
+       -2.0782859418707802       -1.5406631365348742        0.1070227844938521        0.6528144554144695
