2
s                      x[A]                      y[A]                      z[A]                      q[e]
N       -1.9595332094863189        0.9307402025822966        0.3510540202600290        0.9999999977819531
O       -1.9753136994622496        0.9521410196697927        0.3883809607075588       -0.8602267622359248

        RMSE         9.427496939E-01 kcal/mol
         MAE         6.709028648E-01 kcal/mol
     max. AE         5.240150906E+00 kcal/mol

Coordinates in bohr
s                   x[bohr]                   y[bohr]                   z[bohr]                      q[e]
+       -3.7029810996685244        1.7588440768336775        0.6633959535323786        0.9999999977819531
-       -3.7328019038485656        1.7992857599900631        0.7339336480794840       -0.8602267622359248
