4
s                      x[A]                      y[A]                      z[A]                      q[e]
O       -0.7155221595499297       -1.0541632797383904       -0.2754367960284036       -0.4288629802670190
O       -1.1386823369690289       -0.5636406655914802       -0.4259062088323669       -0.3579525645251923
O       -1.0044841302764473       -0.5274652153907092        0.4972289656111165       -0.2000466356311469
N       -0.8841773256863288       -0.9203942699840457       -0.1627270701871559        0.9999999408517514

        RMSE         1.002871255E-01 kcal/mol
         MAE         6.477468147E-02 kcal/mol
     max. AE         9.219372671E-01 kcal/mol

Coordinates in bohr
s                   x[bohr]                   y[bohr]                   z[bohr]                      q[e]
-       -1.3521409182455066       -1.9920798902199450       -0.5205001093672732       -0.4288629802670190
-       -2.1517977607677481       -1.0651264911386593       -0.8048460898252212       -0.3579525645251923
-       -1.8981999035911872       -0.9967647977940637        0.9396265666496988       -0.2000466356311469
+       -1.6708529918868904       -1.7392930977105370       -0.3075095958518782        0.9999999408517514
