4
s                      x[A]                      y[A]                      z[A]                      q[e]
N        1.6631424821219314       -0.1462244519622236       -0.2358807555554535        0.5715866539931478
O        1.5158220665308595       -0.3361429280064560       -0.2752066221860945       -0.8382541732244879
N        1.3613901890526661       -0.8506334910435972        0.1417890812022887        0.4566086701284036
O        1.3118446674321427       -0.6455117830167088        0.4056039436241502       -0.4006256936818561

        RMSE         1.163559321E-01 kcal/mol
         MAE         7.293331393E-02 kcal/mol
     max. AE         9.969448134E-01 kcal/mol

Coordinates in bohr
s                   x[bohr]                   y[bohr]                   z[bohr]                      q[e]
+        3.1428837988245926       -0.2763241670537671       -0.4457500262658722        0.5715866539931478
-        2.8644885606688395       -0.6352180729416896       -0.5200651438440647       -0.8382541732244879
+        2.5726546071947949       -1.6074643312144832        0.2679425310526264        0.4566086701284036
-        2.4790271405890563       -1.2198404806575394        0.7664803688552807       -0.4006256936818561
