1
s                      x[A]                      y[A]                      z[A]                      q[e]
O       -2.8255361150058760       -0.1789505760200545       -0.0345709034851594       -0.0142615867528110

        RMSE         2.358409832E+00 kcal/mol
         MAE         1.990396431E+00 kcal/mol
     max. AE         7.790096445E+00 kcal/mol

Coordinates in bohr
s                   x[bohr]                   y[bohr]                   z[bohr]                      q[e]
-       -5.3394894149512186       -0.3381675786708242       -0.0653295394965868       -0.0142615867528110
