37
s                      x[A]                      y[A]                      z[A]                      q[e]
N        1.5895731270121860       -0.1933019109716449       -0.0953957761445111        0.3928502094758975
O        1.7794389173928296       -0.4894528908017301       -0.2026872179347272       -0.0924317386763106
O        2.0843389687136122       -0.2282657375128093        0.6240311745778944       -0.6209424300680146
N        2.3832993607276829       -0.1630182521122153        0.8835212740512461        0.4770965303657768
O        2.3313298015129282       -0.3406996214923113        0.5048343073250405       -0.7042089063141080
N        2.2402143139287403       -0.4164771167223911        0.3300606805224952        0.7693170761347352
N        2.3121060478377662       -0.2763486438302918       -0.9506173740487637        0.4290525303063536
N        2.0279104819758222       -0.4003189090795397       -0.9016844230085400        0.2902437765624786
O        2.0727450451388130       -0.3646914966378590       -0.7591867412175227       -0.9977568038556841
O        1.6183243805494429       -1.6133653736590301        0.3615763737310576       -0.4142327743869187
N        1.6178512142664614       -1.6641002339799351        0.3022987847765299        0.4307543053190305
O        0.4583601617617162        0.4885665478664686        0.0162943119661804       -0.7769834803987903
N        0.9302287280816172        0.2747923671652903        0.0428386831261401        0.7415882714964565
N        0.0590676692048343        0.4241268411152324       -0.0010041065819675        0.8591795057034084
O        0.7753289144290816        1.4581269367527749       -0.0023018213719852       -0.3901016268103520
O        0.0114083267046526        1.3457957258721769       -0.0002281305100628       -0.4441100523171748
N        0.3209319915023019        1.8186397738242177        0.0190299723902404        0.9548130483311185
O        0.3062600283032448        1.8233266443164367        0.0225334861384173       -0.8423869650304663
N       -1.0129477612623676       -0.4631137566077494        0.2568627003290260        0.3879112074798262
O       -0.5791699876132653       -0.7059712981069572        0.5071704522168540       -0.3905519565559168
O       -0.6119925646746723       -0.6641950617067539       -0.4027516159824697       -0.7190564779890209
N       -1.0260245847250717       -0.5689621099950342       -0.2903114778420338        0.3790381025791537
N       -0.3329755460653420       -0.4681838710666913       -0.0077029173531872        0.6968167131894273
O       -0.6353979280300145       -0.4229862300913950        0.0831117606122974       -0.8786137530728777
N       -0.4725249821363903       -1.7910383836752801        0.0005286282895102        0.2443471564618330
O       -2.3418892985609649        0.1085502234359676       -0.0752762735072196       -0.6833544351068706
O       -1.7141259133268216       -0.5039711343178781       -0.2089832831083769       -0.4729813915000879
N       -2.4784166891391219        0.0967137905573677       -0.0416100424425945        0.6385995361041820
N       -1.6202533608856839       -0.3493656396101884       -0.1640674325730533        0.7088845955462554
N       -2.1198944136866209        0.7029511807200370        1.0563268546428179        0.0682201259808637
O       -2.4802730699114086       -0.5964590306206454        0.0932677370039979       -0.9964222766363964
N       -1.8868468306756228       -0.6428398152356213       -0.0123039396184810        0.3428390982670991
N       -2.6463537298772635       -0.7349308960806428        0.0318841734158866        0.8884627426836500
O       -2.5651080367778496       -0.6167146248751211       -0.1312266816906415       -0.2972224892804435
N       -2.3609423549131261        0.3785029328479729       -0.5969864590377516        0.5426363497939876
N       -2.1667885744069104        0.5954396411279971       -0.8698125551258902        0.3951867053561821
O       -2.2531730547653299        0.4414701954549797       -0.6698230225692248       -0.9164800291382830

        RMSE         5.006388591E-01 kcal/mol
         MAE         2.843030001E-01 kcal/mol
     max. AE         3.695243112E+00 kcal/mol

Coordinates in bohr
s                   x[bohr]                   y[bohr]                   z[bohr]                      q[e]
+        3.0038578664406224       -0.3652876712640405       -0.1802718904386093        0.3928502094758975
-        3.3626522108536241       -0.9249319149288869       -0.3830233310276185       -0.0924317386763106
-        3.9388298034879394       -0.4313597277248548        1.1792480136999819       -0.6209424300680146
+        4.5037830667540426       -0.3080598499429240        1.6696132339724254        0.4770965303657768
-        4.4055748329773934       -0.6438289756676141        0.9539985795795354       -0.7042089063141080
+        4.2333915156557254       -0.7870276881256517        0.6237242909697489        0.7693170761347352
+        4.3692472034280740       -0.5222232519809427       -1.7964064870540652        0.4290525303063536
+        3.8321954178794870       -0.7564931010023831       -1.7039366110776057        0.2902437765624786
-        3.9169204632120804       -0.6891670489288779       -1.4346550189799441       -0.9977568038556841
-        3.0581898613896388       -3.0488186965124999        0.6832803197878832       -0.4142327743869187
+        3.0572957067030027       -3.1446936875323681        0.5712619112863617        0.4307543053190305
-        0.8661751725501914        0.9232569695280082        0.0307917870188513       -0.7769834803987903
+        1.7578775301072380        0.5192823153086490        0.0809533786836763        0.7415882714964565
+        0.1116217176662761        0.8014835721633560       -0.0018974864406881        0.8591795057034084
-        1.4651593054194922        2.7554605666155130       -0.0043498119827776       -0.3901016268103520
-        0.0215586130215402        2.5431853427101343       -0.0004311041848797       -0.4441100523171748
+        0.6064735688371097        3.4367310933923401        0.0359614359925784        0.9548130483311185
-        0.5787475766680956        3.4455879950081232        0.0425821174534090       -0.8423869650304663
+       -1.9141938481815151       -0.8751581649205821        0.4854001554674054        0.3879112074798262
-       -1.0944726566738743       -1.3340924058560937        0.9584132536144501       -0.3905519565559168
-       -1.1564983380516678       -1.2551467605073272       -0.7610902507924315       -0.7190564779890209
+       -1.9389054631169871       -1.0751825636532266       -0.5486091841983626        0.3790381025791537
+       -0.6292325885382632       -0.8847392926727059       -0.0145564041645604        0.6968167131894273
-       -1.2007280646600913       -0.7993281297126253        0.1570584653618552       -0.8786137530728777
+       -0.8929428036746303       -3.3845720253289380        0.0009989626893436        0.2443471564618330
-       -4.4255293904207633        0.2051301931512327       -0.1422515406737018       -0.6833544351068706
-       -3.2392285207379556       -0.9523674189971104       -0.3949211698738494       -0.4729813915000879
+       -4.6835287672368917        0.1827625767083143       -0.0786315842851798        0.6385995361041820
+       -3.0618351059265279       -0.6602053765086573       -0.3100425136700896        0.7088845955462554
+       -4.0060198567557128        1.3283852111280812        1.9961684542412268        0.0682201259808637
-       -4.6870368184810793       -1.1271442129290843        0.1762504792787847       -0.9964222766363964
+       -3.5656237506650275       -1.2147911933352367       -0.0232510761430992        0.3428390982670991
+       -5.0008837805518329       -1.3888181147297227        0.0602523554926289        0.8884627426836500
-       -4.8473516717209417       -1.1654217385784404       -0.2479824887479437       -0.2972224892804435
+       -4.4615344487792621        0.7152668807652243       -1.1281409081881988        0.5426363497939876
+       -4.0946369774002616        1.1252178459728095       -1.6437075096726219        0.3951867053561821
-       -4.2578799867676658        0.8342577619622489       -1.2657820651821925       -0.9164800291382830
