11
s                      x[A]                      y[A]                      z[A]                      q[e]
N       -1.2119581851895354       -0.1439466441492554        0.1980282686092570        0.0507653502618349
O        0.7335452456912130       -0.2634338313127197       -0.0953613723980246       -0.1102615339345903
N       -0.2600043800565977       -0.0333559495392385       -0.1194843513263375        0.2612204354168530
O        1.8135110109377788        0.0490299533097194        0.0098793450567224       -0.2631138514534647
O        1.4528536472504683        0.3203096735219523        0.3846120030338591       -0.0014631750322098
O       -1.5858485157929016       -0.9342299236983498        0.6494059412258850       -0.8852724986382049
N       -1.5908774564011128       -0.9766925217864224        0.6207486640654151        0.9238609327338128
N       -1.5125444016266030        0.3617267515187779       -0.9576359206361968        0.7915141623236123
O       -1.4669183598722981        0.3326296699116200       -0.8435629188558788       -0.8368081480624270
N       -1.5749524840924727        0.9655742384886890        0.9196540393363629        0.3383235831148746
O       -1.5537740164996807        0.9635793567858861        0.9085871481003795       -0.2687652567300907

        RMSE         4.574400274E-01 kcal/mol
         MAE         2.466686227E-01 kcal/mol
     max. AE         3.301517844E+00 kcal/mol

Coordinates in bohr
s                   x[bohr]                   y[bohr]                   z[bohr]                      q[e]
+       -2.2902690455151218       -0.2720197341208291        0.3742191927700932        0.0507653502618349
-        1.3861996149880667       -0.4978177933610969       -0.1802068767800602       -0.1102615339345903
+       -0.4913370697264189       -0.0630336092837519       -0.2257927002847617        0.2612204354168530
-        3.4270391361745576        0.0926531836993542        0.0186692564561009       -0.2631138514534647
-        2.7454954936759015        0.6052975582913008        0.7268113502977490       -0.0014631750322098
-       -2.9968193713123674       -1.7654386939972451        1.2271993731620858       -0.8852724986382049
+       -3.0063226917630796       -1.8456813749590915        1.1730449678274597        0.9238609327338128
+       -2.8582946716687694        0.6835644926220268       -1.8096696179030805        0.7915141623236123
-       -2.7720739485644299        0.6285789773344020       -1.5941028862294160       -0.8368081480624270
+       -2.9762288555442500        1.8246708645411231        1.7378942645167461        0.3383235831148746
-       -2.9362073520369893        1.8209010844701388        1.7169808710205081       -0.2687652567300907
