12
s                      x[A]                      y[A]                      z[A]                      q[e]
N       -1.1098813497229396       -0.2792574598607325        0.2430949552373084        0.0379208080315604
N       -1.4210902241439842        0.3257676649435965       -0.3745261691938330        0.1226055533745072
O        0.8366332586834162       -0.0785885430815760       -0.0740887070630802       -0.2893144351865887
N       -0.0223028347539784       -0.0352140067765395       -0.0365727215082694        0.4065129360545580
O        1.9432105534630233        0.0428153716557292        0.0646405547462436       -0.1901395021707655
O        1.3461166082039171        0.3313876271136633        0.3141558768584648       -0.0078577365826649
O       -1.3664988554481028       -0.8584829457330923        0.4684465188432346       -0.9999967538426018
N       -1.4039437352732347       -0.9301310457044450        0.4593369274343469        0.9999912063787187
N       -1.4337240681348409        0.3016713438762724       -0.8864918852782738        0.6304047035954554
O       -1.3648227915412798        0.2745652685445220       -0.6867567958622828       -0.7857381628138577
N       -1.6128005407535722        0.8095165337615745        1.0027168337354153        0.8559799237915398
O       -1.6103782017835959        0.7988415191313150        1.0077955913487273       -0.7803685406298607

        RMSE         4.741337583E-01 kcal/mol
         MAE         2.629643195E-01 kcal/mol
     max. AE         3.333645605E+00 kcal/mol

Coordinates in bohr
s                   x[bohr]                   y[bohr]                   z[bohr]                      q[e]
+       -2.0973717827298355       -0.5277201176278169        0.4593828878789430        0.0379208080315604
+       -2.6854713231976080        0.6156116672733066       -0.7077518865932251        0.1226055533745072
-        1.5810077263609690       -0.1485108230229223       -0.1400073653384946       -0.2893144351865887
+       -0.0421462495063619       -0.0665448285876756       -0.0691124273132701        0.4065129360545580
-        3.6721357501444407        0.0809093263890180        0.1221529450680636       -0.1901395021707655
-        2.5437917224356217        0.6262318566101664        0.5936685679655532       -0.0078577365826649
-       -2.5823085875484999       -1.6222976508118194        0.8852356250378332       -0.9999967538426018
+       -2.6530691552186805       -1.7576929371670991        0.8680209921602119        0.9999912063787187
+       -2.7093458282520881        0.5700762198249643       -1.6752268756167179        0.6304047035954554
-       -2.5791412857958398        0.5188531611119276       -1.2977822589766643       -0.7857381628138577
+       -3.0477513170145381        1.5297645428393114        1.8948601971461678        0.8559799237915398
-       -3.0431737597782593        1.5095916888028653        1.9044576580929111       -0.7803685406298607
