8
s                      x[A]                      y[A]                      z[A]                      q[e]
O       -1.6840907755724612        0.1352687679104852       -0.0220496781601152       -0.0659498897631861
N        0.3972363464261016       -0.1295860453476547       -0.1565018248344096        0.1528784071312718
O        0.0154122186164417       -0.0538356635135094        0.0341743288908543       -0.1965103405547715
O        1.7505848907230768        0.0103836561116807       -0.0453286457942281       -0.3074206410142639
N       -1.4382536771100238       -1.3537581513991177        0.3851564171563115        0.0524764176627274
N       -0.8757780762543531        0.2541573720870519        0.4079220874716953        0.1169467103170196
N       -1.1674255853876239        0.1166631554262098       -0.5543600880484617        0.1528260817218575
N       -1.1500580833509504        0.4320004244201017        0.3657278258819541        0.0947532544993453

        RMSE         8.652525606E-01 kcal/mol
         MAE         5.235972483E-01 kcal/mol
     max. AE         6.984171051E+00 kcal/mol

Coordinates in bohr
s                   x[bohr]                   y[bohr]                   z[bohr]                      q[e]
-       -3.1824703362418161        0.2556209246789353       -0.0416678528771066       -0.0659498897631861
+        0.7506679018228206       -0.2448821353882259       -0.2957455870714085        0.1528784071312718
-        0.0291248721707574       -0.1017346598228355        0.0645801221250357       -0.1965103405547715
-        3.3081260028311354        0.0196222662320128       -0.0856587261889769       -0.3074206410142639
+       -2.7179055486705996       -2.5582321462504067        0.7278401438880155        0.0524764176627274
+       -1.6549807108010490        0.4802878260106082        0.7708610258465561        0.1169467103170196
+       -2.2061146282348916        0.2204614126872559       -1.0475887412962801        0.1528260817218575
+       -2.1732948059022474        0.8163624882355361        0.6911254273760203        0.0947532544993453
