9
s                      x[A]                      y[A]                      z[A]                      q[e]
N       -1.7365108091208123       -0.0132890525001196        0.0820859243133216        0.0292268729990069
O        0.8324678024532245       -0.0907635979395820       -0.0601080229562054       -0.2145199287566310
N       -0.1559731776271912        0.0241425041256528        0.0135274046852898        0.3706322547183047
O        1.8862825857322760        0.0612810230700074        0.0327824844398629       -0.2184224574188006
O       -1.5626708690356410       -0.8418347785269221        0.0511731596737518       -0.5516138975137208
N       -1.5825187590976193       -0.9430816197744801        0.1271738244209919        0.5798879199713651
N       -1.6520888891781884        0.3746297751159350       -1.1471697591678569        0.0904147815382559
N       -1.4595641763452785        0.7645078199789276        0.7578185521552299        0.3314777121267730
O       -1.3134648326054983        0.5271758043150286        0.4950297860253109       -0.4170832576645531

        RMSE         4.686800949E-01 kcal/mol
         MAE         2.576990554E-01 kcal/mol
     max. AE         3.449831033E+00 kcal/mol

Coordinates in bohr
s                   x[bohr]                   y[bohr]                   z[bohr]                      q[e]
+       -3.2815298431355111       -0.0251126696920568        0.1551199157072378        0.0292268729990069
-        1.5731361548983247       -0.1715183422669785       -0.1135877013299602       -0.2145199287566310
+       -0.2947465886327776        0.0456227207802196        0.0255630900434329        0.3706322547183047
-        3.5645574822544277        0.1158043502901768        0.0619499173034237       -0.2184224574188006
-       -2.9530199667085393       -1.5908371743013294        0.0967032567577137       -0.5516138975137208
+       -2.9905270430938744       -1.7821659753269210        0.2403236984827351        0.5798879199713651
+       -3.1219955354586251        0.7079476734109733       -2.1678366642346640        0.0904147815382559
+       -2.7581765558220095        1.4447104005309896        1.4320695163643635        0.3314777121267730
-       -2.4820888090447033        0.9962178901233534        0.9354707195318286       -0.4170832576645531
