11
s                      x[A]                      y[A]                      z[A]                      q[e]
N        2.7857870199498258       -0.9806972140934209        0.0665013090690878        0.8622861546501654
O        2.7439147217881930       -0.9145093171888110        0.0669476234090339       -0.9644210005963747
O       -2.3964884903664028       -0.2031360679898775       -0.4821402075172589       -0.0878173184946243
N       -2.2868254376822787       -0.1038926728332106       -1.1543992792385755        0.2807678274666891
O       -2.0615182440315305       -0.1207464068790493       -1.0271994722178508       -0.3122926757260338
O        2.2954214871216321        0.1622122817905471        0.8304123407415193       -0.5159993821863281
O        2.3340066997686524        0.5263031301502863        0.6628113317486474       -0.4220117791241412
N        2.2474342686001014        0.3866810896025029        0.7453530368153964        0.9913332489998785
N       -1.3806399684870778       -1.4797737699022449        0.0628661209886286        0.5687737934529535
N       -1.6627696211463994       -1.7906343391810808        0.0474239014086151        0.3284671402274948
O       -1.5161853541312240       -1.5485673067261214        0.0628233644211660       -0.9048463178902005

        RMSE         1.934582350E-01 kcal/mol
         MAE         1.267982092E-01 kcal/mol
     max. AE         2.071705311E+00 kcal/mol

Coordinates in bohr
s                   x[bohr]                   y[bohr]                   z[bohr]                      q[e]
+        5.2643745115604936       -1.8532491466360466        0.1256692611250007        0.8622861546501654
-        5.1852473357914963       -1.7281721486662958        0.1265126729933635       -0.9644210005963747
-       -4.5287069096043817       -0.3838715347032491       -0.9111129462790230       -0.0878173184946243
+       -4.3214737739497346       -0.1963286980965608       -2.1814984771868229        0.2807678274666891
-       -3.8957048838543300       -0.2281776396345003       -1.9411256787065652       -0.3122926757260338
-        4.3377179531510075        0.3065367867697240        1.5692518952018371       -0.5159993821863281
-        4.4106334375464282        0.9945687749552276        1.2525318898549145       -0.4220117791241412
+        4.2470352526228172        0.7307213572423490        1.4085131063593850        0.9913332489998785
+       -2.6090314183013037       -2.7963671527514928        0.1187997512384041        0.5687737934529535
+       -3.1421791936979662       -3.3838084918924025        0.0896181854629963        0.3284671402274948
-       -2.8651750747383029       -2.9263680965502177        0.1187189530358352       -0.9048463178902005
