5
s                      x[A]                      y[A]                      z[A]                      q[e]
O        2.6143276190199010       -0.5342656724544234        0.1222985631927626       -0.0166109998486088
N       -2.4847435246673544        0.0619876774378853       -0.9802976851133871        0.8775025416288040
O       -2.4230806715897906        0.0391989229695286       -0.9033969972236493       -0.9999999817968895
O        2.2322202978254175        0.2122066197971791        0.6361428259119304       -0.4523537902534090
N        2.0882765959934533        0.4642329274728014        0.7474520106609158        0.4157019210495819

        RMSE         9.669083795E-01 kcal/mol
         MAE         6.615969081E-01 kcal/mol
     max. AE         5.419518116E+00 kcal/mol

Coordinates in bohr
s                   x[bohr]                   y[bohr]                   z[bohr]                      q[e]
-        4.9403632021678670       -1.0096157991724186        0.2311107899713187       -0.0166109998486088
+       -4.6954847536260669        0.1171397335108246       -1.8524941462845992        0.8775025416288040
-       -4.5789588491951267        0.0740752288253270       -1.7071729073136832       -0.9999999817968895
-        4.2182850145779458        0.4010123934258257        1.2021357176483458       -0.4523537902534090
+        3.9462708406309712        0.8772730913431219        1.4124795920719158        0.4157019210495819
