6
s                      x[A]                      y[A]                      z[A]                      q[e]
O        2.5904872424487944       -0.5263568275945905        0.0766614755301921       -0.0458616260396757
O       -2.1650610423638246       -0.0644667843939051       -0.5619496397058388       -0.0442711835994275
O        2.2483004657358658        0.2116117763280052        0.7657188371181503       -0.2822635444684363
N        2.0372364307803874        0.5076267475908657        0.8723708635050484        0.2820589620871310
N       -1.5322545547825388       -1.4746626062376904        0.0487371387483648        0.4498129864379624
O       -1.5665073620897056       -1.2551371270196907        0.0308162926255375       -0.5352359036380754

        RMSE         9.714387934E-01 kcal/mol
         MAE         6.578271224E-01 kcal/mol
     max. AE         6.552615830E+00 kcal/mol

Coordinates in bohr
s                   x[bohr]                   y[bohr]                   z[bohr]                      q[e]
-        4.8953114197206933       -0.9946702484185995        0.1448691931255500       -0.0458616260396757
-       -4.0913724149658766       -0.1218245666934194       -1.0619309153437373       -0.0442711835994275
-        4.2486721279800683        0.3998883021815699        1.4469988912573559       -0.2822635444684363
+        3.8498189069801563        0.9592755269036456        1.6485420118536951        0.2820589620871310
+       -2.8955414630243164       -2.7867084532430937        0.0920998443728480        0.4498129864379624
-       -2.9602698878629425       -2.3718654199611899        0.0582343532642316       -0.5352359036380754
