9
s                      x[A]                      y[A]                      z[A]                      q[e]
N        2.2891096230695385       -0.8163997311509955        0.1163113103439925        0.5052382202593569
N        2.8018243279115183       -1.1258444718762681        0.0965377173472109        0.2117177100668290
O        2.4648763252492478       -0.8475514244830398        0.1099205756177273       -0.8000755114097186
N       -2.3266076952804018       -0.1148731806658677       -1.0357927386356056        0.8708775555758994
O       -2.2578690822305285       -0.1328506487964163       -0.9514248063235579       -0.9934940080917047
O        2.2015254690305470        0.1286540643775285        0.8984731271064967       -0.1977886546204500
N        2.0063303882477226        0.4382095926779616        0.8967220414617572        0.2371283241452816
N       -1.8443958104631017       -1.7176751101574996        0.0686063897367571        0.9582887333104750
O       -1.8582680496888593       -1.6714586018964761        0.0794908277289024       -0.9676526784564902

        RMSE         2.605366860E-01 kcal/mol
         MAE         1.837970045E-01 kcal/mol
     max. AE         1.919753415E+00 kcal/mol

Coordinates in bohr
s                   x[bohr]                   y[bohr]                   z[bohr]                      q[e]
+        4.3257902587514288       -1.5427719007727834        0.2197965218432759        0.5052382202593569
+        5.2946806313977168       -2.1275377117068550        0.1824298465630878        0.2117177100668290
-        4.6579411878459904       -1.6016400695145978        0.2077197834701821       -0.8000755114097186
+       -4.3966513454626011       -0.2170788506187273       -1.9573645987592159        0.8708775555758994
-       -4.2667541925545187       -0.2510513418146104       -1.7979323129182816       -0.9934940080917047
-        4.1602801946878234        0.2431209466005489        1.6978681413149388       -0.1977886546204500
+        3.7914149509716690        0.8280961157097774        1.6945590690241603        0.2371283241452816
+       -3.4854029487170881       -3.2459355307132798        0.1296472870588917        0.9582887333104750
-       -3.5116176816006028       -3.1585989876249863        0.1502158938935744       -0.9676526784564902
