1
s                      x[A]                      y[A]                      z[A]                      q[e]
N       -2.0456890233973835       -0.0538179669056605       -0.2116292529454050        0.0766543828076785

        RMSE         1.830238629E+00 kcal/mol
         MAE         1.489898386E+00 kcal/mol
     max. AE         7.999155953E+00 kcal/mol

Coordinates in bohr
s                   x[bohr]                   y[bohr]                   z[bohr]                      q[e]
+       -3.8657919920763457       -0.1017012180806515       -0.3999213282020549        0.0766543828076785
