2
s                      x[A]                      y[A]                      z[A]                      q[e]
N       -2.6700066948230829       -0.1362487457946329        1.1299337982297097        0.1180997996667519
O       -2.6267292263005859       -0.0033048474122062        0.8441841627237466       -0.1253521564803667

        RMSE         6.397510218E-01 kcal/mol
         MAE         4.627406349E-01 kcal/mol
     max. AE         3.520758348E+00 kcal/mol

Coordinates in bohr
s                   x[bohr]                   y[bohr]                   z[bohr]                      q[e]
+       -5.0455814063544864       -0.2574728144889802        2.1352654185524766        0.1180997996667519
-       -4.9637988434438451       -0.0062452564954978        1.5952768669968065       -0.1253521564803667
