2
s                      x[A]                      y[A]                      z[A]                      q[e]
N       -1.0434493063118206        0.2173618506013756       -0.0045105961079958        0.4499010262096291
N        0.0670143778142630        0.0541254195568425        0.1091850244592207        0.3547646482245825

        RMSE         2.273227499E-01 kcal/mol
         MAE         1.570006984E-01 kcal/mol
     max. AE         2.656562792E+00 kcal/mol

Coordinates in bohr
s                   x[bohr]                   y[bohr]                   z[bohr]                      q[e]
+       -1.9718334147282954        0.4107543677592808       -0.0085237913066681        0.4499010262096291
+        0.1266388205369142        0.1022822193879314        0.2063297932293413        0.3547646482245825
