1
s                      x[A]                      y[A]                      z[A]                      q[e]
O       -1.8622681951899367       -1.2245565904849449        0.0429463917262410       -0.0296218896195728

        RMSE         2.241246740E+00 kcal/mol
         MAE         1.780220181E+00 kcal/mol
     max. AE         7.794833532E+00 kcal/mol

Coordinates in bohr
s                   x[bohr]                   y[bohr]                   z[bohr]                      q[e]
-       -3.5191768610596217       -2.3140765811409634        0.0811569184392235       -0.0296218896195728
