4
s                      x[A]                      y[A]                      z[A]                      q[e]
O       -0.3454178654549970        0.3398014464593136       -0.3683991343659329       -0.9999999942307682
N       -0.2257575147076553        0.3511504395439304       -0.4633940762028200        0.7098167425438207
N       -0.9210551074467483        0.2499687570566337       -0.0838425922149079        0.7108099973517095
N        0.0618597823326231        0.0762157151274305        0.1457388690341566        0.3840389287694498

        RMSE         1.072076883E-01 kcal/mol
         MAE         6.841721311E-02 kcal/mol
     max. AE         1.067009943E+00 kcal/mol

Coordinates in bohr
s                   x[bohr]                   y[bohr]                   z[bohr]                      q[e]
-       -0.6527451645501849        0.6421316708425244       -0.6961734688073522       -0.9999999942307682
+       -0.4266198735614861        0.6635781595721649       -0.8756878921828646        0.7098167425438207
+       -1.7405418995284874        0.4723724907581416       -0.1584395369346185        0.7108099973517095
+        0.1168980467890925        0.1440268280467568        0.2754065483085225        0.3840389287694498
