17
s                      x[A]                      y[A]                      z[A]                      q[e]
N        1.2969607616458414       -0.4644513830455743        0.0360545132862280        0.5165593405727772
O        1.5726654500543120       -0.6760354204369561        0.0617839126570468       -0.9832737496894124
N        2.6512563787688546       -0.1854367345137917        1.1082214367845424        0.0751375037010730
N        2.6183166579919201       -0.1684429454805137       -1.1924162669478902        0.0671469681779133
N        1.6640191163647513       -1.3814053027914597        0.0850275726470361        0.2641284563493965
N        0.9723264350292631        0.3406128219748346        0.0424994030788136        0.5565284708198425
N       -0.0672856177080061        0.2743376583462434       -0.0080773826061823        0.4225677178722814
O        0.7268791604882188        1.1788864898868958        0.0037190201220248       -0.5975176079890865
O       -0.1197672259286223        1.4205901583120395        0.0039503680047893       -0.2677392847800473
N       -1.0400728652535705       -0.5975832322267519       -0.0128373680294236        0.4006239598642453
O       -0.5289723199931673       -0.6700238209440497        0.4184330619937312       -0.5447842881046421
O       -0.4777083834830840       -0.6612384649109132       -0.2873172852500442       -0.9361363202311865
N       -0.1414901815516397       -0.5833011921126896       -0.0692912139864922        0.5074604177299101
N       -0.5040402269412371       -1.6970756139565766       -0.0042629701426719        0.3190788195790442
N       -1.8262613515941939       -0.3219020731719994       -0.0238243212518170        0.6119346883633352
N       -2.4917737607157244       -1.0564523118490163       -0.0252822873374957        0.5864796384865507
O       -2.2943176943179608       -0.8396474921533513       -0.0290101135448954       -0.9981947307219952

        RMSE         6.690097627E-01 kcal/mol
         MAE         3.881847393E-01 kcal/mol
     max. AE         5.948374406E+00 kcal/mol

Coordinates in bohr
s                   x[bohr]                   y[bohr]                   z[bohr]                      q[e]
+        2.4509006349758296       -0.8776859125462427        0.0681331556976514        0.5165593405727772
-        2.9719069875725266       -1.2775217957345828        0.1167546738810258       -0.9832737496894124
+        5.0101484442462194       -0.3504246418302994        2.0942350018841607        0.0751375037010730
+        4.9479013933287606       -0.3183110347235953       -2.2533401720723236        0.0671469681779133
+        3.1445403974557204       -2.6104776905310030        0.1606788254153675        0.2641284563493965
+        1.8374306667480720        0.6436649483517611        0.0803122323143968        0.5565284708198425
+       -0.1271513896503870        0.5184230401738199       -0.0152640409362214        0.4225677178722814
-        1.3736025396254405        2.2277725988885426        0.0070279294856936       -0.5975176079890865
-       -0.2263272558109277        2.6845263357305331        0.0074651136238231       -0.2677392847800473
+       -1.9654528658494514       -1.1292686460744255       -0.0242591097473188        0.4006239598642453
-       -0.9996128127351266       -1.2661615191170486        0.7907238890048689       -0.5447842881046421
-       -0.9027380126182106       -1.2495596022997821       -0.5429509802326276       -0.9361363202311865
+       -0.2673776925739048       -1.1022795017460452       -0.1309414173349632        0.5074604177299101
+       -0.9524979851325482       -3.2070081245711264       -0.0080558460506537        0.3190788195790442
+       -3.4511337880214725       -0.6083067575121647       -0.0450214422908586        0.6119346883633352
+       -4.7087699743548077       -1.9964055340014069       -0.0477765988929973        0.5864796384865507
-       -4.3356320870528178       -1.5867038020973347       -0.0548211694682868       -0.9981947307219952
