4
s                      x[A]                      y[A]                      z[A]                      q[e]
N        0.0000613830094579        0.0000861172711475       -0.3609708241287152        0.9999998169478512
O        0.0000949651937687        0.0000881438600012        0.8017265096686036       -0.9999999798370472
N        0.0000964649203923        0.0000811933016123        0.3610059786800549        0.9999999319006112
O        0.0000880827899711        0.0001024178924791       -0.8016696543912880       -0.9999997690114153

        RMSE         2.317543700E-01 kcal/mol
         MAE         1.106506922E-01 kcal/mol
     max. AE         1.690794686E+00 kcal/mol

Coordinates in bohr
s                   x[bohr]                   y[bohr]                   z[bohr]                      q[e]
+        0.0001159970766319        0.0001627380571405       -0.6821359968840761        0.9999998169478512
-        0.0001794582076739        0.0001665677550430        1.5150435307928782       -0.9999999798370472
+        0.0001822922802556        0.0001534331032690        0.6822024293581714        0.9999999319006112
-        0.0001664523494115        0.0001935417671320       -1.5149360898899649       -0.9999997690114153
