2
s                      x[A]                      y[A]                      z[A]                      q[e]
N        0.1206009196173277        0.1206008836732815        0.2248739578994265        0.9999999999999990
O        0.0783703725629394        0.0783703047879921        0.5557217856013970       -0.4790374963603313

        RMSE         6.582105703E-01 kcal/mol
         MAE         4.680752407E-01 kcal/mol
     max. AE         3.211845902E+00 kcal/mol

Coordinates in bohr
s                   x[bohr]                   y[bohr]                   z[bohr]                      q[e]
+        0.2279027085551036        0.2279026406307006        0.4249501931776500        0.9999999999999990
-        0.1480985404940500        0.1480984124179614        1.0501619767370338       -0.4790374963603313
