18
s                      x[A]                      y[A]                      z[A]                      q[e]
N       -0.6121152500423348        0.1372788142834187        0.0364163023476021        0.9451251255025230
O        0.6473506287733941       -0.6552143083713943       -0.3893948531116117       -0.8154276457771288
O        0.4609783662159550       -0.6553855238699146        0.2854637599734182       -0.6585303171965033
N        0.7909691761539733       -0.1919088408009096       -0.1553060228472806        0.8243020283134678
O       -0.4042383696965451        1.2547644209638693        0.0284033687310338       -0.7917124020657674
O       -1.9884181756436565       -0.5757481992396001        0.2601604293633377       -0.7982316184824501
N       -2.1377836364847673       -0.4619594834364174        0.2349147000761687        0.7444168267107035
O        0.6112608992288363       -1.2769073741372168        0.0221779479382068       -0.5356932997944094
N        0.5503161170485082       -1.4157689545911007       -0.0078012454462087        0.9946262704957823
N       -2.4589608605821756       -0.0594743607455784        1.0625009892187043        0.0474395307257152
N       -2.6596058198551997       -0.0013684425511797        0.7082033400479423        0.0083903368392427
O        1.7555974636354665       -0.0093645722346369        0.2475065337293281       -0.5092380286154332
N        2.0538391999694054       -0.3190237328260597       -0.0801073478135800        0.1906999182928308
N        1.5460401013678386       -0.2034023099575183        0.1556233782266617        0.4004402127780133
N       -2.3744730581469700       -0.1332566646427467       -0.7446577320327262        0.7171242498630185
O       -2.2727987571222856       -0.1657039898846960       -0.5550437918904034       -0.9149860708316030
N        1.9924897086507072        0.6529764820481454        1.0642620726175556        0.0782841234691341
N       -1.7726726369688257       -1.8037310749477777        0.0455629356418057        0.0729707597728640

        RMSE         7.961361816E-01 kcal/mol
         MAE         4.812256792E-01 kcal/mol
     max. AE         6.734569917E+00 kcal/mol

Coordinates in bohr
s                   x[bohr]                   y[bohr]                   z[bohr]                      q[e]
+       -1.1567301797961511        0.2594193618232497        0.0688168379388349        0.9451251255025230
-        1.2233153955246350       -1.2381755963032055       -0.7358496270438261       -0.8154276457771288
-        0.8711228619091564       -1.2384991467038426        0.5394483250931910       -0.6585303171965033
+        1.4947151166100183       -0.3626551501678060       -0.2934858488154564        0.8243020283134678
-       -0.7638998081280414        2.3711611075903880        0.0536745879420465       -0.7917124020657674
-       -3.7575657748490103       -1.0880064137883712        0.4916319601782252       -0.7982316184824501
+       -4.0398255884415057       -0.8729769047528007        0.4439244459880261        0.7444168267107035
-        1.1551156907435767       -2.4130052246968519        0.0419102476278730       -0.5356932997944094
+        1.0399467436470742       -2.6754155811029205       -0.0147422173308095        0.9946262704957823
+       -4.6467625797204013       -0.1123902532958230        2.0078358776513716        0.0474395307257152
+       -5.0259266012000570       -0.0025859816401525        1.3383103538250907        0.0083903368392427
-        3.3175983928194404       -0.0176964768055303        0.4677195630098205       -0.5092380286154332
+        3.8811935936715902       -0.6028674825624832       -0.1513809480044592        0.1906999182928308
+        2.9215923705602735       -0.3843746591051932        0.2940855635669275        0.4004402127780133
+       -4.4871037721760736       -0.2518186005667709       -1.4071991707464173        0.7171242498630185
-       -4.2949671892420644       -0.3131351587777097       -1.0488807543084733       -0.9149860708316030
+        3.7652598571430977        1.2339467174359249        2.0111638429592911        0.0782841234691341
+       -3.3498657939642102       -3.4085577356289476        0.0861014698348738        0.0729707597728640
