16
s                      x[A]                      y[A]                      z[A]                      q[e]
N        1.2759698685775775       -0.4844863208424028        0.0355654593013501        0.5379304766959080
O        1.5665159171477427       -0.6784032147151187        0.0585886175782004       -0.9994798462628838
N        2.6556266151921570       -0.2008375589299570        1.1230467823430812        0.0793981808087951
N        2.5945955980307067       -0.1773106557927882       -1.1927274111505632        0.0718030416908131
N        1.6815183727162530       -1.4259275812543086        0.0806649793609482        0.2528095504033613
N        1.0006800733065613        0.3367571250953968        0.0402880213368971        0.5387864224952695
N       -0.0689727553199604        0.2788127180079671       -0.0087654077587661        0.3994787847659196
O        0.7559243325433322        1.1964104872249277        0.0039246712082029       -0.5481180704249640
O       -0.1117492079995293        1.4305341595019463        0.0039453508925643       -0.2850588834360994
O       -0.6872537665300488       -0.6846791867190946        0.5111934801354565       -0.4288347821546112
O       -0.7080198676024767       -0.6679811062291828       -0.5007052393902663       -0.4637654870936525
N       -1.1043982879861338       -0.7695830531636301       -0.0180209947136533        0.4019444421857293
N       -0.4325327146448500       -1.8350100840223791        0.0076317165348174        0.2089361934703605
N       -1.8115570414275259       -0.3538564563010564       -0.0240716969753950        0.6943112375366689
N       -2.5538387355353120       -1.0710296927599097       -0.0327240277794634        0.5191829686710502
O       -2.3170175490176237       -0.8352693416342160       -0.0260352378467173       -0.9793242293516651

        RMSE         6.631946022E-01 kcal/mol
         MAE         3.866066489E-01 kcal/mol
     max. AE         5.851764925E+00 kcal/mol

Coordinates in bohr
s                   x[bohr]                   y[bohr]                   z[bohr]                      q[e]
+        2.4112335959480400       -0.9155464579228322        0.0672089776056685        0.5379304766959080
-        2.9602860545796199       -1.2819962784417362        0.1107164412919831       -0.9994798462628838
+        5.0184069941897613       -0.3795279820831159        2.1222508447050719        0.0793981808087951
+        4.9030750865965036       -0.3350685785736923       -2.2539281494008998        0.0718030416908131
+        3.1776091993592370       -2.6946126033071569        0.1524347189079004        0.2528095504033613
+        1.8910112777524637        0.6363787372268414        0.0761333264633369        0.5387864224952695
+       -0.1303396176729396        0.5268796773295616       -0.0165642200420311        0.3994787847659196
-        1.4284899600764061        2.2608881544806749        0.0074165537159732       -0.5481180704249640
-       -0.2111753978559314        2.7033177745706838        0.0074556326557770       -0.2850588834360994
-       -1.2987213974311278       -1.2938561467002914        0.9660156745756794       -0.4288347821546112
-       -1.3379636411515927       -1.2623013477535077       -0.9461957720294024       -0.4637654870936525
+       -2.0870102977182952       -1.4543012012729124       -0.0340547445171280        0.4019444421857293
+       -0.8173683709795689       -3.4676664962556543        0.0144218541179329        0.2089361934703605
+       -3.4233466689426848       -0.6686917901340326       -0.0454889146585081        0.6943112375366689
+       -4.8260557787472642       -2.0239527915494722       -0.0618394502250597        0.5191829686710502
-       -4.3785285955228677       -1.5784302966801380       -0.0491994691414502       -0.9793242293516651
