2
s                      x[A]                      y[A]                      z[A]                      q[e]
O       -1.3391258849075458       -0.7971624772826027        0.1680994527282529       -0.1487621460042989
N       -0.8823750483879848       -1.6958009390448472        0.0578495981351488        0.1478324203182916

        RMSE         8.538302351E-01 kcal/mol
         MAE         6.541678150E-01 kcal/mol
     max. AE         5.014048204E+00 kcal/mol

Coordinates in bohr
s                   x[bohr]                   y[bohr]                   z[bohr]                      q[e]
-       -2.5305811699866219       -1.5064187595556167        0.3176619274957427       -0.1487621460042989
+       -1.6674471813908900       -3.2045993380889657        0.1093198969432271        0.1478324203182916
