4
s                      x[A]                      y[A]                      z[A]                      q[e]
O       -1.2676547486200682       -0.4665228180424514       -0.3789720535248336       -0.4953329832300915
O       -1.2988519975693564       -0.4651860243503770        0.3412618708537904       -0.5625014719252650
N       -1.2167070009384386       -0.4991637107529637       -0.0108031151673717        0.9999999997016985
N       -0.8978578541892687       -2.0372868642952011        0.0074362125388216        0.0569047297676506

        RMSE         2.405213960E-01 kcal/mol
         MAE         1.627416446E-01 kcal/mol
     max. AE         1.926924612E+00 kcal/mol

Coordinates in bohr
s                   x[bohr]                   y[bohr]                   z[bohr]                      q[e]
-       -2.3955202965280185       -0.8816003573770290       -0.7161533903642805       -0.4953329832300915
-       -2.4544745529099004       -0.8790741834127688        0.6448914729750230       -0.5625014719252650
+       -2.2992430067008098       -0.9432827050903501       -0.0204149289681121        0.9999999997016985
+       -1.6967054440089664       -3.8499142125106984        0.0140524051090682        0.0569047297676506
