6
s                      x[A]                      y[A]                      z[A]                      q[e]
O       -1.2639825647311220       -0.3772136367894498       -0.3506144905547427       -0.4907544098379513
O       -1.2930977699450443       -0.3900953672859933        0.3201360898560450       -0.5450880977783485
N       -1.1901182276485822       -0.4207208221309792       -0.0101475725530415        0.9999999995296889
N       -0.7637044707368698       -1.5659547202345838       -0.1699095217064241        0.9727744689761673
O       -0.7537035470889504       -1.5471071204843285       -0.2596894317252827       -0.7791387977349706
O       -0.7362797234687889       -1.3741410328401009        0.2460795922839406       -0.1587228888405931

        RMSE         1.113986710E-01 kcal/mol
         MAE         7.337947917E-02 kcal/mol
     max. AE         9.011514266E-01 kcal/mol

Coordinates in bohr
s                   x[bohr]                   y[bohr]                   z[bohr]                      q[e]
-       -2.3885808746955917       -0.7128304643199834       -0.6625653627653842       -0.4907544098379513
-       -2.4436006386364069       -0.7371734069804086        0.6049695327028831       -0.5450880977783485
+       -2.2489975071710928       -0.7950471291050074       -0.0191761329634614        0.9999999995296889
+       -1.4431922904804062       -2.9592255461112975       -0.3210824621326736        0.9727744689761673
-       -1.4242932837842239       -2.9236087444610677       -0.4907419036365636       -0.7791387977349706
-       -1.3913670290838356       -2.5967502098215420        0.4650230344809732       -0.1587228888405931
