3
s                      x[A]                      y[A]                      z[A]                      q[e]
N       -0.1697519001112880        2.2077292411706031       -0.2060968814726909        0.1329776594175681
N        0.2767351905231688        1.9007561424049668       -0.3047833599080280        0.9496074507805655
O        0.2367112036376068        1.9276952050369023       -0.3381827590793682       -0.9999999933258874

        RMSE         2.393603634E-01 kcal/mol
         MAE         1.641104387E-01 kcal/mol
     max. AE         1.446500604E+00 kcal/mol

Coordinates in bohr
s                   x[bohr]                   y[bohr]                   z[bohr]                      q[e]
+       -0.3207846004864085        4.1720036249772745       -0.3894666612943294        0.1329776594175681
+        0.5229537193651815        3.5919085404271058       -0.5759570778230165        0.9496074507805655
-        0.4473193457025536        3.6428159908780189       -0.6390727950116927       -0.9999999933258874
