1
s                      x[A]                      y[A]                      z[A]                      q[e]
N       -3.1588458609043344       -0.7333255417412440       -0.1742295532502990        0.0223764127783988

        RMSE         1.422295607E+00 kcal/mol
         MAE         1.127258221E+00 kcal/mol
     max. AE         4.908440015E+00 kcal/mol

Coordinates in bohr
s                   x[bohr]                   y[bohr]                   z[bohr]                      q[e]
+       -5.9693535496452457       -1.3857844346939439       -0.3292461386039359        0.0223764127783988
