3
s                      x[A]                      y[A]                      z[A]                      q[e]
O        1.6851045345585796        0.6807999184498845        0.9239826731040371       -0.9999999974289975
N        1.6234837739177643        0.5824419271318473        0.8414442768329407        0.6833209788873952
N        1.7724220502098389        0.9573026211689805        1.0413655263173942        0.3591987986593853

        RMSE         1.610280287E-01 kcal/mol
         MAE         1.065262687E-01 kcal/mol
     max. AE         1.247252573E+00 kcal/mol

Coordinates in bohr
s                   x[bohr]                   y[bohr]                   z[bohr]                      q[e]
-        3.1843860630828016        1.2865253921043056        1.7460741968350590       -0.9999999974289975
+        3.0679397018292693        1.1006557262630565        1.5900992330481771        0.6833209788873952
+        3.3493922536190590        1.8090397731922805        1.9678956412331212        0.3591987986593853
