36
s                      x[A]                      y[A]                      z[A]                      q[e]
N        1.5869073251192536       -0.1925807625476895       -0.0956155797750841        0.3910438142879515
O        1.7630738412384916       -0.4853833363398449       -0.2027107826428227       -0.0933701328405431
O        2.0872534074813140       -0.2249984306278595        0.6245586140077530       -0.6198135564348726
N        2.3770695230915284       -0.1615583773704043        0.8819174783167205        0.4792716263054675
O        2.3275823613147386       -0.3419514258524005        0.5011521561314248       -0.7052759193167426
N        2.2469615854657334       -0.4151528508711836        0.3308749241427626        0.7691282768982948
N        2.3127869729424133       -0.2760050513903810       -0.9521012358320081        0.4293710219485216
N        2.0229163748949239       -0.4020155687722974       -0.9055620640632258        0.2895369740299994
O        2.0712060314517884       -0.3649508549300663       -0.7553399458511655       -0.9999244307695506
O        1.6176975614527180       -1.6208348152554273        0.3596632233139328       -0.4157854416627990
N        1.6146065841691732       -1.6746082851663640        0.3005270336047942        0.4331118499277804
O        0.3919110638895530        0.4473084716558560        0.0065506429821492       -0.7912343254745968
N        0.9488729073758151        0.2472584678116584        0.0432911951723505        0.6530332682717556
N        0.0808689664304324        0.4122822536938303       -0.0038660242045060        0.9805518685516642
O        0.0574147058212091        1.3652624058918363        0.0028698615266563       -0.5335364737788247
O        0.6581728864025334        1.5444977608241006        0.0024502422148990       -0.9927356092824255
N        0.5362635191213124        1.6220439307129020        0.0040490938901276        0.7852272859224948
N       -1.0183216868179010       -0.4619879744585346        0.2558361230690486        0.3909733435300208
O       -0.5794063845532139       -0.7076920468158984        0.5087650533278960       -0.3905370976699925
O       -0.6135460190632085       -0.6647007195594951       -0.4015215242138893       -0.7182705557539152
N       -1.0286278273846352       -0.5701926723519486       -0.2889557899879434        0.3804732091817765
N       -0.3317216206209417       -0.4703928112882514       -0.0076206374803340        0.6959736913487239
O       -0.6383494628298197       -0.4226925177753348        0.0833340982112372       -0.8730342572921320
N       -0.4748635010236878       -1.7886494859197037        0.0005273374064038        0.2435651720324158
O       -2.3365913699221164        0.1085251561198406       -0.0755762383242597       -0.6875841226104771
O       -1.7135218500775204       -0.5053125257096119       -0.2089420526743175       -0.4711049418964558
N       -2.4856717110051498        0.0962977617410223       -0.0416404541507293        0.6370971287582492
N       -1.6224999600846057       -0.3462923709151247       -0.1654009071020816        0.6982919603235485
N       -2.1173517375017497        0.7111970775441945        1.0520771596749408        0.0685708989480239
O       -2.4850656367640762       -0.5963281395849164        0.0933333344053451       -0.9993722078904320
N       -1.8844628014894778       -0.6432779321369518       -0.0123179499870224        0.3443507644942194
N       -2.6450888139362450       -0.7347262832334638        0.0316452058412743        0.8931345377267083
O       -2.5569464137696616       -0.6174811358461786       -0.1313180497633621       -0.2956727086467440
N       -2.3565048843067307        0.3782020112281410       -0.5953543370343416        0.5446049968616162
N       -2.1828430037457451        0.5951582011086414       -0.8721101656169191        0.3949461137003832
O       -2.2635862809102445        0.4405776723446643       -0.6714421298089358       -0.9150060217291123

        RMSE         5.005608993E-01 kcal/mol
         MAE         2.835887233E-01 kcal/mol
     max. AE         3.741025880E+00 kcal/mol

Coordinates in bohr
s                   x[bohr]                   y[bohr]                   z[bohr]                      q[e]
+        2.9988202309582532       -0.3639248982469594       -0.1806872591017735        0.3910438142879515
-        3.3317266988996650       -0.9172415715432889       -0.3830678618721454       -0.0933701328405431
-        3.9443372945683128       -0.4251854125444769        1.1802447297701824       -0.6198135564348726
+        4.4920103798156417       -0.3053010865034277        1.6665824992729945        0.4792716263054675
-        4.3984931973312840       -0.6461945430708367        0.9470403222710739       -0.7052759193167426
+        4.2461420109547392       -0.7845251883495733        0.6252629884114557        0.7691282768982948
+        4.3705339653878053       -0.5215739563707333       -1.7992105794324307        0.4293710219485216
+        3.8227579232553803       -0.7596993231497987       -1.7112642906837934        0.2895369740299994
-        3.9140121488402730       -0.6896571650695161       -1.4273856292768488       -0.9999244307695506
-        3.0570053449666217       -3.0629338954397931        0.6796649894627118       -0.4157854416627990
+        3.0511642444407103       -3.1645510263870107        0.5679137868093221        0.4331118499277804
-        0.7406045762880603        0.8452905050266835        0.0123789211819144       -0.7912343254745968
+        1.7931099228072036        0.4672507863643643        0.0818085025194845        0.6530332682717556
+        0.1528201986023602        0.7791005458678634       -0.0073057269409073        0.9805518685516642
-        0.1084980695758144        2.5799720365192127        0.0054232523033688       -0.5335364737788247
-        1.2437664985028547        2.9186777693404191        0.0046302867271943       -0.9927356092824255
+        1.0133911822134978        3.0652187925084782        0.0076516785086057        0.7852272859224948
+       -1.9243490957000722       -0.8730307449816366        0.4834602055994253        0.3909733435300208
-       -1.0949193821472734       -1.3373441496467275        0.9614266129936703       -0.3905370976699925
-       -1.1594339413943917       -1.2561023153621951       -0.7587657142406344       -0.7182705557539152
+       -1.9438248787816703       -1.0775079894880928       -0.5460473054425221        0.3804732091817765
+       -0.6268630128666038       -0.8889135847189626       -0.0144009177392304        0.6959736913487239
-       -1.2063056570814812       -0.7987730938755977        0.1574786225312434       -0.8730342572921320
+       -0.8973619639108330       -3.3800576628291781        0.0009965232738124        0.2435651720324158
-       -4.4155177562611199        0.2050828227890523       -0.1428183920251807       -0.6875841226104771
-       -3.2380870066343221       -0.9549022813545341       -0.3948432556454434       -0.4711049418964558
+       -4.6972387715978918        0.1819763961851232       -0.0786890540845619        0.6370971287582492
+       -3.0660805631261630       -0.6543977403650437       -0.3125624153252267        0.6982919603235485
+       -4.0012148951405822        1.3439676977845212        1.9881376946352025        0.0685708989480239
-       -4.6960934572705684       -1.1268968647192790        0.1763744404018726       -0.9993722078904320
+       -3.5611185884281151       -1.2156191142896857       -0.0232775519025592        0.3443507644942194
+       -4.9984934358515822       -1.3884314524868044        0.0598007722237467        0.8931345377267083
-       -4.8319284394962310       -1.1668702343858979       -0.2481551493819966       -0.2956727086467440
+       -4.4531488446434055        0.7146982213185128       -1.1250566445984203        0.5446049968616162
+       -4.1249754519511743        1.1246860014154838       -1.6480493642436453        0.3949461137003832
-       -4.2775581322640113        0.8325711377231111       -1.2688417344329923       -0.9150060217291123
