10
s                      x[A]                      y[A]                      z[A]                      q[e]
N        1.7436372214751990        0.8519982185086425        0.7561461126171982        0.2077686633654407 
N        2.7884483456836380       -0.4824783136623284        0.0929966959133842        0.1989579679818300 
O        1.8504923519309415       -0.0464925966674155        0.1876898728494242       -0.4028951876328813 
O        1.3482020239438341       -0.8197261370108450       -0.3517691014810426       -0.1723945149841387 
N        0.9760850951613163       -1.4126859404050429       -0.7720186228139243        0.1842161694669382 
O       -0.4930042194774146        1.5034936236352616       -0.1313633696881772       -0.2182160178889095 
N        0.0023492989558418        0.1480992543873967       -0.1407439737807260        0.3016433619358825 
O       -1.4607683961119211       -0.7707890191223475        0.2047400413714368       -0.6030608026320508 
N       -2.4330002008585545       -0.2629298584792397        0.4051729482374756        0.2337005151669886 
N       -1.4646059050514244       -1.7106531348138456        0.2568128855600221        0.2702798452209002 

        RMSE         6.554346208e-01 kcal/mol
         MAE         4.754439772e-01 kcal/mol
     max. AE         6.019810620e+00 kcal/mol

Coordinates in bohr
s                   x[bohr]                   y[bohr]                   z[bohr]                      q[e]
+        3.2949965721119776        1.6100431757566833        1.4289089601915819        0.2077686633654407 
+        5.2694033067070469       -0.9117518082636045        0.1757382731214535        0.1989579679818300 
-        3.4969234891494376       -0.0878582681999128        0.3546824305205865       -0.4028951876328813 
-        2.5477324025297827       -1.5490577846440781       -0.6647472130551970       -0.1723945149841387 
+        1.8445333714114434       -2.6695893353132405       -1.4589036552146535        0.1842161694669382 
-       -0.9316428860359286        2.8411909742779411       -0.2482407736498179       -0.2182160178889095 
+        0.0044395312918451        0.2798670099081461       -0.2659675449922749        0.3016433619358825 
-       -2.7604520014582365       -1.4565800411630025        0.3869025770866433       -0.6030608026320508 
+       -4.5977037098314302       -0.4968653867471394        0.7656658501620403        0.2337005151669886 
+       -2.7677038418327005       -3.2326656863377834        0.4853059840501314        0.2702798452209002 

total molecule built from fragment files: /home/boittier/pydcm/models/fbutadiene-5/3-fragfit/frag1/fit2/3charges.xyz /home/boittier/pydcm/models/fbutadiene-5/3-fragfit/frag2/fit1/2charges.xyz /home/boittier/pydcm/models/fbutadiene-5/3-fragfit/frag3/fit1/2charges.xyz /home/boittier/pydcm/models/fbutadiene-5/3-fragfit/frag4/fit1/3charges.xyz 