11
s                      x[A]                      y[A]                      z[A]                      q[e]
N        1.7436372214751990        0.8519982185086425        0.7561461126171982        0.2077686633654407 
N        2.7884483456836380       -0.4824783136623284        0.0929966959133842        0.1989579679818300 
O        1.8504923519309415       -0.0464925966674155        0.1876898728494242       -0.4028951876328813 
N        0.4882707877504354       -0.4318803377372719       -0.1909852869939655        0.6545837420322724 
O        0.7770009154820616       -0.6224845372443478       -0.2809282641511024       -0.9999999942130393 
N        1.0008879369234354       -1.2500164130173530       -0.6565689071821258        0.3572379066635664 
O       -0.4930042194774146        1.5034936236352616       -0.1313633696881772       -0.2182160178889095 
N        0.0023492989558418        0.1480992543873967       -0.1407439737807260        0.3016433619358825 
O       -1.4607683961119211       -0.7707890191223475        0.2047400413714368       -0.6030608026320508 
N       -2.4330002008585545       -0.2629298584792397        0.4051729482374756        0.2337005151669886 
N       -1.4646059050514244       -1.7106531348138456        0.2568128855600221        0.2702798452209002 

        RMSE         4.666065489e-01 kcal/mol
         MAE         3.211505141e-01 kcal/mol
     max. AE         6.019810620e+00 kcal/mol

Coordinates in bohr
s                   x[bohr]                   y[bohr]                   z[bohr]                      q[e]
+        3.2949965721119776        1.6100431757566833        1.4289089601915819        0.2077686633654407 
+        5.2694033067070469       -0.9117518082636045        0.1757382731214535        0.1989579679818300 
-        3.4969234891494376       -0.0878582681999128        0.3546824305205865       -0.4028951876328813 
+        0.9226979970861924       -0.8161354981874680       -0.3609098602727261        0.6545837420322724 
-        1.4683188231524440       -1.1763252075322888       -0.5308774416986239       -0.9999999942130393 
+        1.8914039460804533       -2.3621885018554432       -1.2407353272087642        0.3572379066635664 
-       -0.9316428860359286        2.8411909742779411       -0.2482407736498179       -0.2182160178889095 
+        0.0044395312918451        0.2798670099081461       -0.2659675449922749        0.3016433619358825 
-       -2.7604520014582365       -1.4565800411630025        0.3869025770866433       -0.6030608026320508 
+       -4.5977037098314302       -0.4968653867471394        0.7656658501620403        0.2337005151669886 
+       -2.7677038418327005       -3.2326656863377834        0.4853059840501314        0.2702798452209002 

total molecule built from fragment files: /home/boittier/pydcm/models/fbutadiene-5/3-fragfit/frag1/fit2/3charges.xyz /home/boittier/pydcm/models/fbutadiene-5/3-fragfit/frag2/fit2/3charges.xyz /home/boittier/pydcm/models/fbutadiene-5/3-fragfit/frag3/fit1/2charges.xyz /home/boittier/pydcm/models/fbutadiene-5/3-fragfit/frag4/fit1/3charges.xyz 