19
s                      x[A]                      y[A]                      z[A]                      q[e]
N        1.7436372214751990        0.8519982185086425        0.7561461126171982        0.2077686633654407 
N        2.7884483456836380       -0.4824783136623284        0.0929966959133842        0.1989579679818300 
O        1.8504923519309415       -0.0464925966674155        0.1876898728494242       -0.4028951876328813 
N        0.8896349235381372       -0.3928394392211444       -0.0652114817968789        0.8964792276995657 
N        1.3868211925765737       -0.6707882481880090       -0.4440600574133404        0.7312762746606563 
O        1.2624867627333187       -0.4953767148514208       -0.4246748791564502       -0.9999999566167823 
O        1.0320452599306031       -0.5170860953719421        0.0861619867808999       -0.6755056526326124 
N        0.8793008227693306       -1.8327360055359088       -1.0609946876211183        0.0595717613719723 
N       -0.5129913702573277        0.8211824980458979       -0.1149265511929248        0.4361523764621167 
N       -0.6622412007091441        1.7846910053801195       -0.1209201277667594        0.2879109388031669 
O       -0.6269692073300105        1.3675386761733612       -0.1181839257240612       -0.9999999975873475 
O       -0.9212876046305388       -0.2939243822417695       -0.2991037850873112       -0.5829863322692794 
O       -0.7504303958425652       -0.3957207420215174        0.1966713667069014       -0.8971120243601551 
N       -0.7931969808807122        0.2090303384878843       -0.0927516803044126        0.8394661018017955 
N       -0.6215297944272135       -0.4814659277831043        0.0287557584468742        0.9999962811966761 
N       -2.8164410568716134       -0.4253996938105996        0.5570942101888255        0.0678144778887025 
O       -1.4395853486089278       -0.6517194346892219        0.1861712774132066       -0.5269591937440889 
N       -1.4697093708527000       -1.8340977474820592        0.2574611924842076        0.1968694539657563 
N       -2.2239797619230339       -0.0813136456048439        0.3099428721911038        0.1631948196454682 

        RMSE         1.778503352e-01 kcal/mol
         MAE         1.124149575e-01 kcal/mol
     max. AE         2.427510083e+00 kcal/mol

Coordinates in bohr
s                   x[bohr]                   y[bohr]                   z[bohr]                      q[e]
+        3.2949965721119776        1.6100431757566833        1.4289089601915819        0.2077686633654407 
+        5.2694033067070469       -0.9117518082636045        0.1757382731214535        0.1989579679818300 
-        3.4969234891494376       -0.0878582681999128        0.3546824305205865       -0.4028951876328813 
+        1.6811662353761918       -0.7423588976432467       -0.1232318319066779        0.8964792276995657 
+        2.6207120491531968       -1.2676059854483475       -0.8391518309931975        0.7312762746606563 
-        2.3857540458006343       -0.9361262522020215       -0.8025191558475083       -0.9999999566167823 
-        1.9502827491023029       -0.9771510327680570        0.1628225456492762       -0.6755056526326124 
+        1.6616376165845668       -3.4633688599041603       -2.0049892349641660        0.0595717613719723 
+       -0.9694131243027971        1.5518099079408021       -0.2171796905694383        0.4361523764621167 
+       -1.2514544077017382        3.3725769744874743       -0.2285059079856777        0.2879109388031669 
-       -1.1848000051434624        2.5842733767804402       -0.2233352358755305       -0.9999999975873475 
-       -1.7409811294453710       -0.5554365438054721       -0.5652241959681211       -0.5829863322692794 
-       -1.4181078216590808       -0.7478037704261375        0.3716549928795124       -0.8971120243601551 
+       -1.4989249488493392        0.3950100630464098       -0.1752752607575672        0.8394661018017955 
+       -1.1745210052183206       -0.9098386763571430        0.0543405040589621        0.9999962811966761 
+       -5.3223018605303380       -0.8038888569363727        1.0527554070924146        0.0678144778887025 
-       -2.7204218460740819       -1.2315711530079230        0.3518127012585967       -0.5269591937440889 
+       -2.7773479937893026       -3.4659421790495673        0.4865311064933541        0.1968694539657563 
+       -4.2027123542263976       -0.1536605093272837        0.5857071005608571        0.1631948196454682 

total molecule built from fragment files: /home/boittier/pydcm/models/fbutadiene-5/3-fragfit/frag1/fit2/3charges.xyz /home/boittier/pydcm/models/fbutadiene-5/3-fragfit/frag2/fit2/5charges.xyz /home/boittier/pydcm/models/fbutadiene-5/3-fragfit/frag3/fit1/7charges.xyz /home/boittier/pydcm/models/fbutadiene-5/3-fragfit/frag4/fit2/4charges.xyz 