22
s                      x[A]                      y[A]                      z[A]                      q[e]
N        1.8796153171933565        1.2481172169102319        1.0339077942289299        0.0629618859933895 
N        2.9782404986057700       -0.4778576043788078        0.1320076325986820        0.1311307595677582 
N        1.8320860402853514       -0.4765331328456044       -0.0547842052767294        0.5600334966391234 
N        1.5241342581295185        0.3564824172280798        0.4190796897130080        0.2135624461536161 
O        1.7513474822038559       -0.2866715937034216        0.0416348843763401       -0.9638571446394979 
N        1.3808867308892918       -0.7481928608684114       -0.3227123887720534        0.3692366502547543 
N        0.6412055938797304       -0.9501581620731151       -0.1728044135382518        0.9570849214345558 
N        0.8684370349658580       -0.0412115968503451       -0.0869659141099185        0.5440440788002547 
O        1.0874376581744931       -0.3127789871191194       -0.1816557325295542       -0.9910629188913525 
O        0.7313834768440469       -0.9730422904735797       -0.1476149491421337       -0.9323532599068707 
N        1.0117765915534653       -1.8162699613419653       -1.0041490944804659        0.0648721827914577 
N       -0.5129913702573277        0.8211824980458979       -0.1149265511929248        0.4361523764621167 
N       -0.6622412007091441        1.7846910053801195       -0.1209201277667594        0.2879109388031669 
O       -0.6269692073300105        1.3675386761733612       -0.1181839257240612       -0.9999999975873475 
O       -0.9212876046305388       -0.2939243822417695       -0.2991037850873112       -0.5829863322692794 
O       -0.7504303958425652       -0.3957207420215174        0.1966713667069014       -0.8971120243601551 
N       -0.7931969808807122        0.2090303384878843       -0.0927516803044126        0.8394661018017955 
N       -0.6215297944272135       -0.4814659277831043        0.0287557584468742        0.9999962811966761 
N       -2.8164410568716134       -0.4253996938105996        0.5570942101888255        0.0678144778887025 
O       -1.4395853486089278       -0.6517194346892219        0.1861712774132066       -0.5269591937440889 
N       -1.4697093708527000       -1.8340977474820592        0.2574611924842076        0.1968694539657563 
N       -2.2239797619230339       -0.0813136456048439        0.3099428721911038        0.1631948196454682 

        RMSE         1.473002711e-01 kcal/mol
         MAE         9.342263763e-02 kcal/mol
     max. AE         2.014418970e+00 kcal/mol

Coordinates in bohr
s                   x[bohr]                   y[bohr]                   z[bohr]                      q[e]
+        3.5519579134709183        2.3585995416143688        1.9538024285705098        0.0629618859933895 
+        5.6280584705163452       -0.9030199338447703        0.2494582540152899        0.1311307595677582 
+        3.4621406036784950       -0.9005170455673148       -0.1035271364762328        0.5600334966391234 
+        2.8801961177029320        0.6736540883148507        0.7919457809450953        0.2135624461536161 
-        3.3095668521898025       -0.5417307608147359        0.0786785230383260       -0.9638571446394979 
+        2.6094975426743892       -1.4138794936680210       -0.6098379879057361        0.3692366502547543 
+        1.2117028747902236       -1.7955385721499764       -0.3265529912080161        0.9570849214345558 
+        1.6411080344377087       -0.0778786255998030       -0.1643417480158684        0.5440440788002547 
-        2.0549592036346627       -0.5910665806469846       -0.3432795587392690       -0.9910629188913525 
-        1.3821143638248217       -1.8387833043147936       -0.2789518056997573       -0.9323532599068707 
+        1.9119805197157107       -3.4322525482614292       -1.8975666402688931        0.0648721827914577 
+       -0.9694131243027971        1.5518099079408021       -0.2171796905694383        0.4361523764621167 
+       -1.2514544077017382        3.3725769744874743       -0.2285059079856777        0.2879109388031669 
-       -1.1848000051434624        2.5842733767804402       -0.2233352358755305       -0.9999999975873475 
-       -1.7409811294453710       -0.5554365438054721       -0.5652241959681211       -0.5829863322692794 
-       -1.4181078216590808       -0.7478037704261375        0.3716549928795124       -0.8971120243601551 
+       -1.4989249488493392        0.3950100630464098       -0.1752752607575672        0.8394661018017955 
+       -1.1745210052183206       -0.9098386763571430        0.0543405040589621        0.9999962811966761 
+       -5.3223018605303380       -0.8038888569363727        1.0527554070924146        0.0678144778887025 
-       -2.7204218460740819       -1.2315711530079230        0.3518127012585967       -0.5269591937440889 
+       -2.7773479937893026       -3.4659421790495673        0.4865311064933541        0.1968694539657563 
+       -4.2027123542263976       -0.1536605093272837        0.5857071005608571        0.1631948196454682 

total molecule built from fragment files: /home/boittier/pydcm/models/fbutadiene-5/3-fragfit/frag1/fit1/5charges.xyz /home/boittier/pydcm/models/fbutadiene-5/3-fragfit/frag2/fit2/6charges.xyz /home/boittier/pydcm/models/fbutadiene-5/3-fragfit/frag3/fit1/7charges.xyz /home/boittier/pydcm/models/fbutadiene-5/3-fragfit/frag4/fit2/4charges.xyz 