23
s                      x[A]                      y[A]                      z[A]                      q[e]
N        1.8796153171933565        1.2481172169102319        1.0339077942289299        0.0629618859933895 
N        2.9782404986057700       -0.4778576043788078        0.1320076325986820        0.1311307595677582 
N        1.8320860402853514       -0.4765331328456044       -0.0547842052767294        0.5600334966391234 
N        1.5241342581295185        0.3564824172280798        0.4190796897130080        0.2135624461536161 
O        1.7513474822038559       -0.2866715937034216        0.0416348843763401       -0.9638571446394979 
N        0.8896349235381372       -0.3928394392211444       -0.0652114817968789        0.8964792276995657 
N        1.3868211925765737       -0.6707882481880090       -0.4440600574133404        0.7312762746606563 
O        1.2624867627333187       -0.4953767148514208       -0.4246748791564502       -0.9999999566167823 
O        1.0320452599306031       -0.5170860953719421        0.0861619867808999       -0.6755056526326124 
N        0.8793008227693306       -1.8327360055359088       -1.0609946876211183        0.0595717613719723 
N       -0.5129913702573277        0.8211824980458979       -0.1149265511929248        0.4361523764621167 
N       -0.6622412007091441        1.7846910053801195       -0.1209201277667594        0.2879109388031669 
O       -0.6269692073300105        1.3675386761733612       -0.1181839257240612       -0.9999999975873475 
O       -0.9212876046305388       -0.2939243822417695       -0.2991037850873112       -0.5829863322692794 
O       -0.7504303958425652       -0.3957207420215174        0.1966713667069014       -0.8971120243601551 
N       -0.7931969808807122        0.2090303384878843       -0.0927516803044126        0.8394661018017955 
N       -0.6215297944272135       -0.4814659277831043        0.0287557584468742        0.9999962811966761 
N       -2.6860202699100553       -0.1345277362381978        0.7312290466847675        0.9999747324497289 
O       -2.6751589387067738       -0.1228924283711663        0.7556673357878571       -0.9119053466777157 
O       -1.5116265901172867       -0.4818945704295075        0.2100189282992122       -0.9756368011387628 
N       -1.7288952353689429       -0.2826757842554004        0.2510947191421730        0.6003218081849149 
N       -1.4072236744228976       -1.8662441648807375        0.5226018129088532        0.6894928933899123 
O       -1.3838095072363412       -1.8913602273860499        0.6125237401906430       -0.5013277284522394 

        RMSE         1.358815274e-01 kcal/mol
         MAE         8.633697923e-02 kcal/mol
     max. AE         1.922269942e+00 kcal/mol

Coordinates in bohr
s                   x[bohr]                   y[bohr]                   z[bohr]                      q[e]
+        3.5519579134709183        2.3585995416143688        1.9538024285705098        0.0629618859933895 
+        5.6280584705163452       -0.9030199338447703        0.2494582540152899        0.1311307595677582 
+        3.4621406036784950       -0.9005170455673148       -0.1035271364762328        0.5600334966391234 
+        2.8801961177029320        0.6736540883148507        0.7919457809450953        0.2135624461536161 
-        3.3095668521898025       -0.5417307608147359        0.0786785230383260       -0.9638571446394979 
+        1.6811662353761918       -0.7423588976432467       -0.1232318319066779        0.8964792276995657 
+        2.6207120491531968       -1.2676059854483475       -0.8391518309931975        0.7312762746606563 
-        2.3857540458006343       -0.9361262522020215       -0.8025191558475083       -0.9999999566167823 
-        1.9502827491023029       -0.9771510327680570        0.1628225456492762       -0.6755056526326124 
+        1.6616376165845668       -3.4633688599041603       -2.0049892349641660        0.0595717613719723 
+       -0.9694131243027971        1.5518099079408021       -0.2171796905694383        0.4361523764621167 
+       -1.2514544077017382        3.3725769744874743       -0.2285059079856777        0.2879109388031669 
-       -1.1848000051434624        2.5842733767804402       -0.2233352358755305       -0.9999999975873475 
-       -1.7409811294453710       -0.5554365438054721       -0.5652241959681211       -0.5829863322692794 
-       -1.4181078216590808       -0.7478037704261375        0.3716549928795124       -0.8971120243601551 
+       -1.4989249488493392        0.3950100630464098       -0.1752752607575672        0.8394661018017955 
+       -1.1745210052183206       -0.9098386763571430        0.0543405040589621        0.9999962811966761 
+       -5.0758423099554175       -0.2542205593568484        1.3818225331394078        0.9999747324497289 
-       -5.0553173701097851       -0.2322330156951569        1.4280042031744362       -0.9119053466777157 
-       -2.8565600524034367       -0.9106486935058734        0.3968782269049413       -0.9756368011387628 
+       -3.2671382578434049       -0.5341797758553168        0.4745002163631822        0.6003218081849149 
+       -2.6592671493301347       -3.5266900994482331        0.9875742275433349        0.6894928933899123 
-       -2.6150207890962736       -3.5741525754958241        1.1575020304727324       -0.5013277284522394 

total molecule built from fragment files: /home/boittier/pydcm/models/fbutadiene-5/3-fragfit/frag1/fit1/5charges.xyz /home/boittier/pydcm/models/fbutadiene-5/3-fragfit/frag2/fit2/5charges.xyz /home/boittier/pydcm/models/fbutadiene-5/3-fragfit/frag3/fit1/7charges.xyz /home/boittier/pydcm/models/fbutadiene-5/3-fragfit/frag4/fit1/6charges.xyz 