31
s                      x[A]                      y[A]                      z[A]                      q[e]
O        1.7680919792492849        0.9509818760369336        0.8067305145961268       -0.9967128469891009 
N        1.8000716065691353        0.8610424864030669        0.7759086278391533        0.5503441960525455 
O        1.6104621684804739        0.6165045673023799        0.9525264256346959       -0.1382946150579556 
N        1.7424794066501885        1.0448799551173071        0.8932770255631146        0.5763864628649148 
N        3.2649158630988806       -0.6182427256709396        0.0896246124130829        0.0662742274043218 
O        1.5487144393370900       -0.3152692183699350        0.2812316917393711       -0.8176430946009290 
N        1.7408572632417831       -0.4951652671078367        0.0230640222464992        0.4250141511204223 
N        1.5101383458248852        0.0337790569985138        0.2868373085447233        0.9999270086524066 
O        1.5721721076556152       -0.0290587205952055       -0.0349635717165126       -0.6614640457322362 
N        1.3808867308892918       -0.7481928608684114       -0.3227123887720534        0.3692366502547543 
N        0.6412055938797304       -0.9501581620731151       -0.1728044135382518        0.9570849214345558 
N        0.8684370349658580       -0.0412115968503451       -0.0869659141099185        0.5440440788002547 
O        1.0874376581744931       -0.3127789871191194       -0.1816557325295542       -0.9910629188913525 
O        0.7313834768440469       -0.9730422904735797       -0.1476149491421337       -0.9323532599068707 
N        1.0117765915534653       -1.8162699613419653       -1.0041490944804659        0.0648721827914577 
N       -0.5129913702573277        0.8211824980458979       -0.1149265511929248        0.4361523764621167 
N       -0.6622412007091441        1.7846910053801195       -0.1209201277667594        0.2879109388031669 
O       -0.6269692073300105        1.3675386761733612       -0.1181839257240612       -0.9999999975873475 
O       -0.9212876046305388       -0.2939243822417695       -0.2991037850873112       -0.5829863322692794 
O       -0.7504303958425652       -0.3957207420215174        0.1966713667069014       -0.8971120243601551 
N       -0.7931969808807122        0.2090303384878843       -0.0927516803044126        0.8394661018017955 
N       -0.6215297944272135       -0.4814659277831043        0.0287557584468742        0.9999962811966761 
N       -2.7490946379089487       -0.2157557580979533        0.4482984196434680        0.2731862557644602 
N       -2.2055587506497969       -0.1494657621964622        0.2665756526795270        0.5057145883623768 
O       -2.3490556689105970       -0.2909449559266086        0.3195617322982389       -0.9998757638298196 
O       -1.6417187246763170       -0.6244523546005964       -0.1119882128200337       -0.3677540921440861 
O       -1.4088595681613116       -0.6494444698637228        0.3003068062714942       -0.7202869192751629 
N       -1.9518459703819142       -0.5626761563491854        0.2352923607999088        0.9666725771375717 
N       -1.5271966683689755       -1.9717776870874153        0.2229798184876637        0.5096758918827384 
N       -1.3380229365443017       -1.5180752085525637        0.1839856814944507        0.6938264273105876 
O       -1.4659474294039083       -1.7574136079933662        0.1989834260855052       -0.9602394074528283 

        RMSE         8.428648616e-02 kcal/mol
         MAE         5.227756855e-02 kcal/mol
     max. AE         1.049077381e+00 kcal/mol

Coordinates in bohr
s                   x[bohr]                   y[bohr]                   z[bohr]                      q[e]
-        3.3412093634225855        1.7970951658345771        1.5244996192289524       -0.9967128469891009 
+        3.4016420962746494        1.6271343638446376        1.4662546988066134        0.5503441960525455 
-        3.0433322134346632        1.1650247029219050        1.8000139413501501       -0.1382946150579556 
+        3.2928086193471691        1.9745368061523769        1.6880488102259241        0.5763864628649148 
+        6.1697963570903545       -1.1683093459632750        0.1693659592952049        0.0662742274043218 
-        2.9266459249353769       -0.5957724353592747        0.5314508366978336       -0.8176430946009290 
+        3.2897432127910688       -0.9357266739057397        0.0435846822408581        0.4250141511204223 
+        2.8537476784866995        0.0638331618804922        0.5420439164570404        0.9999270086524066 
-        2.9709744903888531       -0.0549130195042259       -0.0660715701269738       -0.6614640457322362 
+        2.6094975426743892       -1.4138794936680210       -0.6098379879057361        0.3692366502547543 
+        1.2117028747902236       -1.7955385721499764       -0.3265529912080161        0.9570849214345558 
+        1.6411080344377087       -0.0778786255998030       -0.1643417480158684        0.5440440788002547 
-        2.0549592036346627       -0.5910665806469846       -0.3432795587392690       -0.9910629188913525 
-        1.3821143638248217       -1.8387833043147936       -0.2789518056997573       -0.9323532599068707 
+        1.9119805197157107       -3.4322525482614292       -1.8975666402688931        0.0648721827914577 
+       -0.9694131243027971        1.5518099079408021       -0.2171796905694383        0.4361523764621167 
+       -1.2514544077017382        3.3725769744874743       -0.2285059079856777        0.2879109388031669 
-       -1.1848000051434624        2.5842733767804402       -0.2233352358755305       -0.9999999975873475 
-       -1.7409811294453710       -0.5554365438054721       -0.5652241959681211       -0.5829863322692794 
-       -1.4181078216590808       -0.7478037704261375        0.3716549928795124       -0.8971120243601551 
+       -1.4989249488493392        0.3950100630464098       -0.1752752607575672        0.8394661018017955 
+       -1.1745210052183206       -0.9098386763571430        0.0543405040589621        0.9999962811966761 
+       -5.1950355823774474       -0.4077192632677972        0.8471611742485702        0.2731862557644602 
+       -4.1679016904870680       -0.2824493352285620        0.5037549387965093        0.5057145883623768 
-       -4.4390715462085124       -0.5498062444665938        0.6038841104860181       -0.9998757638298196 
-       -3.1023985399920844       -1.1800438431312099       -0.2116270361828854       -0.3677540921440861 
-       -2.6623585402422036       -1.2272720928540266        0.5674975763647080       -0.7202869192751629 
+       -3.6884540559748893       -1.0633037558186127        0.4446380891226356        0.9666725771375717 
+       -2.8859832339201885       -3.7261195390306874        0.4213707579294488        0.5096758918827384 
+       -2.5284967165306558       -2.8687461742511444        0.3476825238503455        0.6938264273105876 
-       -2.7702389552659294       -3.3210301677443566        0.3760241515744464       -0.9602394074528283 

total molecule built from fragment files: /home/boittier/pydcm/models/fbutadiene-5/3-fragfit/frag1/fit1/9charges.xyz /home/boittier/pydcm/models/fbutadiene-5/3-fragfit/frag2/fit2/6charges.xyz /home/boittier/pydcm/models/fbutadiene-5/3-fragfit/frag3/fit1/7charges.xyz /home/boittier/pydcm/models/fbutadiene-5/3-fragfit/frag4/fit1/9charges.xyz 