33
s                      x[A]                      y[A]                      z[A]                      q[e]
O        1.7680919792492849        0.9509818760369336        0.8067305145961268       -0.9967128469891009 
N        1.8000716065691353        0.8610424864030669        0.7759086278391533        0.5503441960525455 
O        1.6104621684804739        0.6165045673023799        0.9525264256346959       -0.1382946150579556 
N        1.7424794066501885        1.0448799551173071        0.8932770255631146        0.5763864628649148 
N        3.2649158630988806       -0.6182427256709396        0.0896246124130829        0.0662742274043218 
O        1.5487144393370900       -0.3152692183699350        0.2812316917393711       -0.8176430946009290 
N        1.7408572632417831       -0.4951652671078367        0.0230640222464992        0.4250141511204223 
N        1.5101383458248852        0.0337790569985138        0.2868373085447233        0.9999270086524066 
O        1.5721721076556152       -0.0290587205952055       -0.0349635717165126       -0.6614640457322362 
N        1.3808867308892918       -0.7481928608684114       -0.3227123887720534        0.3692366502547543 
N        0.6412055938797304       -0.9501581620731151       -0.1728044135382518        0.9570849214345558 
N        0.8684370349658580       -0.0412115968503451       -0.0869659141099185        0.5440440788002547 
O        1.0874376581744931       -0.3127789871191194       -0.1816557325295542       -0.9910629188913525 
O        0.7313834768440469       -0.9730422904735797       -0.1476149491421337       -0.9323532599068707 
N        1.0117765915534653       -1.8162699613419653       -1.0041490944804659        0.0648721827914577 
O       -0.5818811134150521        1.3945147941741831       -0.1456568194880546       -0.9729034420687737 
N       -0.5638552704386641        0.8984608923187397       -0.1111947722555632        0.9788508649428045 
N       -0.6431686859039923        1.6080675898425945       -0.1218774823936223        0.7289960728968674 
O       -0.6777850418748110        1.2332372436418497       -0.0795910176606037       -0.9625029553054611 
O       -0.9614313614833369       -0.2499952506867716       -0.2702256712123282       -0.5686023907349853 
O       -0.7550274184783226       -0.3625316213031522        0.2509996654621520       -0.6565045431809220 
N       -0.8515834697032179        0.2516988627669578       -0.0685604913928168        0.7829939858983728 
N       -0.5811980384506030       -0.4782143587031384        0.0353882239303022        0.7530997515990705 
N       -2.7573183641702683       -0.2372255887852752        0.4281142304106634        0.2242081675235545 
N       -2.2105783301629400       -0.1477187233274362        0.2565997381107488        0.3970993295075730 
O       -2.4087884764909493       -0.2536945083210754        0.2983690169270138       -0.4957298952622368 
O       -1.3400623225626718       -1.1146536139701919        0.3135671266682349       -0.4031027186923324 
O       -1.2932542645308600       -0.7902530474565576       -0.1295464123730944       -0.5934087955319827 
O       -1.1170099282896582       -0.5569734947624794        0.4303454637916129       -0.2890502684656878 
N       -1.2967365080668700       -1.0246339310834041        0.1306141595364214        0.9999986947969268 
N       -1.6165741194603322       -2.0408902193554983        0.2192584619170938        0.2766355700755851 
N       -1.8389958428414264       -1.6073468433278801        0.1983634728448505        0.5077920803664958 
O       -1.7480431608084159       -1.7292359257531267        0.1764083767794850       -0.7235226065620577 

        RMSE         7.699053646e-02 kcal/mol
         MAE         4.674562772e-02 kcal/mol
     max. AE         1.049077381e+00 kcal/mol

Coordinates in bohr
s                   x[bohr]                   y[bohr]                   z[bohr]                      q[e]
-        3.3412093634225855        1.7970951658345771        1.5244996192289524       -0.9967128469891009 
+        3.4016420962746494        1.6271343638446376        1.4662546988066134        0.5503441960525455 
-        3.0433322134346632        1.1650247029219050        1.8000139413501501       -0.1382946150579556 
+        3.2928086193471691        1.9745368061523769        1.6880488102259241        0.5763864628649148 
+        6.1697963570903545       -1.1683093459632750        0.1693659592952049        0.0662742274043218 
-        2.9266459249353769       -0.5957724353592747        0.5314508366978336       -0.8176430946009290 
+        3.2897432127910688       -0.9357266739057397        0.0435846822408581        0.4250141511204223 
+        2.8537476784866995        0.0638331618804922        0.5420439164570404        0.9999270086524066 
-        2.9709744903888531       -0.0549130195042259       -0.0660715701269738       -0.6614640457322362 
+        2.6094975426743892       -1.4138794936680210       -0.6098379879057361        0.3692366502547543 
+        1.2117028747902236       -1.7955385721499764       -0.3265529912080161        0.9570849214345558 
+        1.6411080344377087       -0.0778786255998030       -0.1643417480158684        0.5440440788002547 
-        2.0549592036346627       -0.5910665806469846       -0.3432795587392690       -0.9910629188913525 
-        1.3821143638248217       -1.8387833043147936       -0.2789518056997573       -0.9323532599068707 
+        1.9119805197157107       -3.4322525482614292       -1.8975666402688931        0.0648721827914577 
-       -1.0995958622959281        2.6352508480381336       -0.2752514772033957       -0.9729034420687737 
+       -1.0655319583570249        1.6978448979554686       -0.2101276509277960        0.9788508649428045 
+       -1.2154125808064848        3.0388071159509162       -0.2303150459043670        0.7289960728968674 
-       -1.2808280083151697        2.3304804694194337       -0.1504052145323644       -0.9625029553054611 
-       -1.8168418300501428       -0.4724225222493643       -0.5106524736768154       -0.5686023907349853 
-       -1.4267949348040541       -0.6850854264658601        0.4743205909537345       -0.6565045431809220 
+       -1.6092594141603316        0.4756418822717851       -0.1295605423761925        0.7829939858983728 
+       -1.0983050377834467       -0.9036941017630031        0.0668740464514885        0.7530997515990705 
+       -5.2105761716165953       -0.4482913602884712        0.8090185872965190        0.2242081675235545 
+       -4.1773873203448986       -0.2791479104746692        0.4849031937758359        0.3970993295075730 
-       -4.5519501850651469       -0.4794131055394351        0.5638356854800113       -0.4957298952622368 
-       -2.5323505972903568       -2.1063899026063835        0.5925559484355916       -0.4031027186923324 
-       -2.4438961935517454       -1.4933617213490060       -0.2448072221913291       -0.5934087955319827 
-       -2.1108426910131892       -1.0525272880140233        0.8132350070031312       -0.2890502684656878 
+       -2.4504766796603779       -1.9362773683696899        0.2468249717551220        0.9999986947969268 
+       -3.0548821260423509       -3.8567232873956399        0.4143384137051955        0.2766355700755851 
+       -3.4751982371448045       -3.0374451025308677        0.3748526098238644        0.5077920803664958 
-       -3.3033225901741523       -3.2677820693164636        0.3333634942069336       -0.7235226065620577 

total molecule built from fragment files: /home/boittier/pydcm/models/fbutadiene-5/3-fragfit/frag1/fit1/9charges.xyz /home/boittier/pydcm/models/fbutadiene-5/3-fragfit/frag2/fit2/6charges.xyz /home/boittier/pydcm/models/fbutadiene-5/3-fragfit/frag3/fit1/8charges.xyz /home/boittier/pydcm/models/fbutadiene-5/3-fragfit/frag4/fit1/10charges.xyz 