35
s                      x[A]                      y[A]                      z[A]                      q[e]
O        1.7680919792492849        0.9509818760369336        0.8067305145961268       -0.9967128469891009 
N        1.8000716065691353        0.8610424864030669        0.7759086278391533        0.5503441960525455 
O        1.6104621684804739        0.6165045673023799        0.9525264256346959       -0.1382946150579556 
N        1.7424794066501885        1.0448799551173071        0.8932770255631146        0.5763864628649148 
N        3.2649158630988806       -0.6182427256709396        0.0896246124130829        0.0662742274043218 
O        1.5487144393370900       -0.3152692183699350        0.2812316917393711       -0.8176430946009290 
N        1.7408572632417831       -0.4951652671078367        0.0230640222464992        0.4250141511204223 
N        1.5101383458248852        0.0337790569985138        0.2868373085447233        0.9999270086524066 
O        1.5721721076556152       -0.0290587205952055       -0.0349635717165126       -0.6614640457322362 
N        1.0657613341788690       -0.1633152869693729       -0.0177747563744870        0.7889368784313582 
N        1.3821645919631476       -0.7406699880875558       -0.3520448866629440        0.3843521069533982 
N        0.8422502247628858       -0.2526776659535808       -0.3105561869099073        0.1233919180299435 
O        1.1505993850250238       -0.3366207031271492        0.1118981772846369       -0.6515118196220820 
O        1.2353749475432467       -0.1981192016806683       -0.3272795964099338       -0.5656552347772730 
N        0.6222696088849585       -1.0731697994600253       -0.3797984692798295        0.7504285221577751 
N        0.9303626860796167       -1.6108667617179846       -0.8665006991371877        0.1818792821874419 
O        0.7598824661587656       -1.1032254775684438       -0.4382003749967001       -0.9999999988777623 
O       -0.5818811134150521        1.3945147941741831       -0.1456568194880546       -0.9729034420687737 
N       -0.5638552704386641        0.8984608923187397       -0.1111947722555632        0.9788508649428045 
N       -0.6431686859039923        1.6080675898425945       -0.1218774823936223        0.7289960728968674 
O       -0.6777850418748110        1.2332372436418497       -0.0795910176606037       -0.9625029553054611 
O       -0.9614313614833369       -0.2499952506867716       -0.2702256712123282       -0.5686023907349853 
O       -0.7550274184783226       -0.3625316213031522        0.2509996654621520       -0.6565045431809220 
N       -0.8515834697032179        0.2516988627669578       -0.0685604913928168        0.7829939858983728 
N       -0.5811980384506030       -0.4782143587031384        0.0353882239303022        0.7530997515990705 
N       -2.7573183641702683       -0.2372255887852752        0.4281142304106634        0.2242081675235545 
N       -2.2105783301629400       -0.1477187233274362        0.2565997381107488        0.3970993295075730 
O       -2.4087884764909493       -0.2536945083210754        0.2983690169270138       -0.4957298952622368 
O       -1.3400623225626718       -1.1146536139701919        0.3135671266682349       -0.4031027186923324 
O       -1.2932542645308600       -0.7902530474565576       -0.1295464123730944       -0.5934087955319827 
O       -1.1170099282896582       -0.5569734947624794        0.4303454637916129       -0.2890502684656878 
N       -1.2967365080668700       -1.0246339310834041        0.1306141595364214        0.9999986947969268 
N       -1.6165741194603322       -2.0408902193554983        0.2192584619170938        0.2766355700755851 
N       -1.8389958428414264       -1.6073468433278801        0.1983634728448505        0.5077920803664958 
O       -1.7480431608084159       -1.7292359257531267        0.1764083767794850       -0.7235226065620577 

        RMSE         6.998067985e-02 kcal/mol
         MAE         4.209748967e-02 kcal/mol
     max. AE         9.593892479e-01 kcal/mol

Coordinates in bohr
s                   x[bohr]                   y[bohr]                   z[bohr]                      q[e]
-        3.3412093634225855        1.7970951658345771        1.5244996192289524       -0.9967128469891009 
+        3.4016420962746494        1.6271343638446376        1.4662546988066134        0.5503441960525455 
-        3.0433322134346632        1.1650247029219050        1.8000139413501501       -0.1382946150579556 
+        3.2928086193471691        1.9745368061523769        1.6880488102259241        0.5763864628649148 
+        6.1697963570903545       -1.1683093459632750        0.1693659592952049        0.0662742274043218 
-        2.9266459249353769       -0.5957724353592747        0.5314508366978336       -0.8176430946009290 
+        3.2897432127910688       -0.9357266739057397        0.0435846822408581        0.4250141511204223 
+        2.8537476784866995        0.0638331618804922        0.5420439164570404        0.9999270086524066 
-        2.9709744903888531       -0.0549130195042259       -0.0660715701269738       -0.6614640457322362 
+        2.0139968908428183       -0.3086211421216909       -0.0335894190619016        0.7889368784313582 
+        2.6119123499554746       -1.3996633254651065       -0.6652683714807067        0.3843521069533982 
+        1.5916221386386165       -0.4774915520912711       -0.5868660973241708        0.1233919180299435 
-        2.1743175603489653       -0.6361208910001791        0.2114568936917485       -0.6515118196220820 
-        2.3345201440378349       -0.3743910042566437       -0.6184687588743711       -0.5656552347772730 
+        1.1759190518258635       -2.0279968602202603       -0.7177150378285926        0.7504285221577751 
+        1.7581305467083550       -3.0440967837903989       -1.6374488902996132        0.1818792821874419 
-        1.4359696445816794       -2.0847938562467347       -0.8280786368455298       -0.9999999988777623 
-       -1.0995958622959281        2.6352508480381336       -0.2752514772033957       -0.9729034420687737 
+       -1.0655319583570249        1.6978448979554686       -0.2101276509277960        0.9788508649428045 
+       -1.2154125808064848        3.0388071159509162       -0.2303150459043670        0.7289960728968674 
-       -1.2808280083151697        2.3304804694194337       -0.1504052145323644       -0.9625029553054611 
-       -1.8168418300501428       -0.4724225222493643       -0.5106524736768154       -0.5686023907349853 
-       -1.4267949348040541       -0.6850854264658601        0.4743205909537345       -0.6565045431809220 
+       -1.6092594141603316        0.4756418822717851       -0.1295605423761925        0.7829939858983728 
+       -1.0983050377834467       -0.9036941017630031        0.0668740464514885        0.7530997515990705 
+       -5.2105761716165953       -0.4482913602884712        0.8090185872965190        0.2242081675235545 
+       -4.1773873203448986       -0.2791479104746692        0.4849031937758359        0.3970993295075730 
-       -4.5519501850651469       -0.4794131055394351        0.5638356854800113       -0.4957298952622368 
-       -2.5323505972903568       -2.1063899026063835        0.5925559484355916       -0.4031027186923324 
-       -2.4438961935517454       -1.4933617213490060       -0.2448072221913291       -0.5934087955319827 
-       -2.1108426910131892       -1.0525272880140233        0.8132350070031312       -0.2890502684656878 
+       -2.4504766796603779       -1.9362773683696899        0.2468249717551220        0.9999986947969268 
+       -3.0548821260423509       -3.8567232873956399        0.4143384137051955        0.2766355700755851 
+       -3.4751982371448045       -3.0374451025308677        0.3748526098238644        0.5077920803664958 
-       -3.3033225901741523       -3.2677820693164636        0.3333634942069336       -0.7235226065620577 

total molecule built from fragment files: /home/boittier/pydcm/models/fbutadiene-5/3-fragfit/frag1/fit1/9charges.xyz /home/boittier/pydcm/models/fbutadiene-5/3-fragfit/frag2/fit2/8charges.xyz /home/boittier/pydcm/models/fbutadiene-5/3-fragfit/frag3/fit1/8charges.xyz /home/boittier/pydcm/models/fbutadiene-5/3-fragfit/frag4/fit1/10charges.xyz 