31
s                      x[A]                      y[A]                      z[A]                      q[e]
N       -2.0997427272788793        1.5509398911870906        0.0014387784684727        0.0680439855757309
O       -1.8254105816547090       -0.2912057524409586        0.3558850615857755       -0.3231072406174564
N       -1.9445427281538641       -0.3909645183270901        0.0032714095532761        0.5835507386255809
N       -3.3160228845043020       -0.6086790308498208       -0.0152823210402120        0.0605056808718613
O       -1.8449429435459310       -0.3161500622432528       -0.3139871049400295       -0.3994582204961878
O       -1.1226026111284377       -0.3358044185985201        0.3295890966233234       -0.5685651915338400
O       -0.3364513295332425       -0.3384100209884123        0.0625556825678028       -0.2361591393575714
O       -1.0703260109141450       -0.3034567104966888       -0.4169939514028518       -0.3716563359173234
N       -0.8611621604268267       -0.3082962434193274        0.0248652812144373        0.9968590660737735
N       -0.8038894840916291       -1.8217249666512614        0.0140660679778539        0.1274053108427642
O       -0.8350423582872248       -1.3494940777627917        0.2497706467347666       -0.5175415105222922
N       -0.8513955328329165       -1.2448811231306403        0.0331685233921606        0.9963938770357892
O       -0.8130515933182798       -1.3365998815759148       -0.2385604826552914       -0.4317118778141456
N        1.6876927416953282       -1.1732348964663988        0.0272667544678307        0.4881120037899961
O        1.3673303599187470       -0.6433477092654324       -0.0155964878076542       -0.8602223701769626
N        1.1073003378338442       -0.5746256189579151        0.0251013342529049        0.9958628524678624
O        1.4541926377697225       -0.9969233854706769        0.0351334853012571       -0.9928869770373081
O        0.5380552143694944        0.3263809698466953       -0.1685601276842053       -0.9496769494149124
N        0.2109164006793026        0.4610538638972541       -0.0338874654000630        0.7240948386773596
O        0.5727019127146336        0.3932047139169093        0.4332449603853567       -0.3309788721041411
N        0.9750464979031976       -0.1256136180278521       -0.0336575943469701        0.9892832184318203
N        1.8301044262539596        1.1976542423046925        0.0366016402499659        0.4955836159477061
N        2.0932096394607527        1.6655527806301891        0.0408018214664222        0.2210048584087236
O        1.7993437718850396        1.3379747082380080        0.0424669911047293       -0.7084780600642843
O        0.6969494071568755        1.1336099665590249        0.3009838239900533       -0.7304216992940056
N        0.7245175667294140        1.1771181458078399        0.0173237795177878        0.9939480934548514
O        0.7124450336357712        1.0003244100267603       -0.4422567663040600       -0.4695008784765003
O        0.2349052919938384        1.8787324546181763       -0.1321026758728374       -0.8973713566119582
N        0.1325013050875863        2.0085124894731465       -0.0175479357674394        0.9937785037348803
N        0.4195346851869874        1.5244648886345189       -0.0028378103162406        0.4843981569863398
O        0.1908936909373872        1.9324721521355177        0.1749821318569775       -0.4310881214861497

        RMSE         4.693952012E-01 kcal/mol
         MAE         2.768076848E-01 kcal/mol
     max. AE         4.459497543E+00 kcal/mol

Coordinates in bohr
s                   x[bohr]                   y[bohr]                   z[bohr]                      q[e]
+       -3.9679386884789700        2.9308516313909663        0.0027188972606192        0.0680439855757309
-       -3.4495260658400739       -0.5502991182712843        0.6725252985388080       -0.3231072406174564
+       -3.6746531954613966       -0.7388158644097380        0.0061820680998983        0.5835507386255809
+       -6.2663750774638061       -1.1502366666152577       -0.0288794013273225        0.0605056808718613
-       -3.4864368803978127       -0.5974370321861933       -0.5933496352620423       -0.3994582204961878
-       -2.1214114827565838       -0.6345783828698001        0.6228331265551387       -0.5685651915338400
-       -0.6358008673639892       -0.6395022577785348        0.1182131076442238       -0.2361591393575714
-       -2.0226230255815203       -0.5734500737710855       -0.7880043641238611       -0.3716563359173234
+       -1.6273606328142798       -0.5825954655700091        0.0469885715277780        0.9968590660737735
+       -1.5191309600687666       -3.4425612628796793        0.0265810161402162        0.1274053108427642
-       -1.5780013603192848       -2.5501742148989655        0.4719981165071864       -0.5175415105222922
+       -1.6089043814924504       -2.3524843814692544        0.0626794251970250        0.9963938770357892
-       -1.5364448372386668       -2.5258077154978453       -0.4508139765755333       -0.4317118778141456
+        3.1892770657272118       -2.2170926351513640        0.0515266982743036        0.4881120037899961
-        2.5838799032701112       -1.2157509739523349       -0.0294730904755086       -0.8602223701769626
+        2.0924943771328945       -1.0858850445021473        0.0474346471215639        0.9958628524678624
-        2.7480258190418767       -1.8839121666038032        0.0663926650521742       -0.9928869770373081
-        1.0167769955328458        0.6167706455715638       -0.3185324769953500       -0.9496769494149124
+        0.3985742326512093        0.8712655318499187       -0.0640380286920473        0.7240948386773596
-        1.0822497665565118        0.7430492205419547        0.8187143203631504       -0.3309788721041411
+        1.8425708406238341       -0.2373753357005126       -0.0636036353575312        0.9892832184318203
+        3.4583961466081168        2.2632385109485775        0.0691670758149693        0.4955836159477061
+        3.9555929417491456        3.1474386028857992        0.0771042679913641        0.2210048584087236
-        3.4002669344109901        2.5284057613591790        0.0802509825601921       -0.7084780600642843
-        1.3170435028266927        2.1422123698859643        0.5687769955342044       -0.7304216992940056
+        1.3691397742017091        2.2244309128835522        0.0327371987464348        0.9939480934548514
-        1.3463259930141980        1.8903391715607576       -0.8357441654452795       -0.4695008784765003
-        0.4439066672890559        3.5502898022374811       -0.2496378778397884       -0.8973713566119582
+        0.2503911778812700        3.7955385246657465       -0.0331607926675861        0.9937785037348803
+        0.7928056551335754        2.8808211273958091       -0.0053626842936937        0.4843981569863398
-        0.3607367949494529        3.6518431126102024        0.3306683060584369       -0.4310881214861497
