4
s                      x[A]                      y[A]                      z[A]                      q[e]
O       -0.6868803995319608       -0.6818830353902636        0.5117944599721808       -0.4183373224849978
O       -0.7029204941652401       -0.6780609194534096       -0.5066538788643472       -0.4396679235506449
N       -1.1295217344032829       -0.6683791035444294       -0.0171154256214729        0.3953335044595654
N       -0.3889732237859392       -1.9077980643914925        0.0076750073993140        0.1811854277096264

        RMSE         3.227584276E-01 kcal/mol
         MAE         2.252520839E-01 kcal/mol
     max. AE         1.813654036E+00 kcal/mol

Coordinates in bohr
s                   x[bohr]                   y[bohr]                   z[bohr]                      q[e]
-       -1.2980158360604572       -1.2885721864834661        0.9671513618740107       -0.4183373224849978
-       -1.3283272219437809       -1.2813494341430642       -0.9574370714545027       -0.4396679235506449
+       -2.1344867307743218       -1.2630534536779912       -0.0323434669452276        0.3953335044595654
+       -0.7350528630918437       -3.6052158443784794        0.0145036619955657        0.1811854277096264
