7
s                      x[A]                      y[A]                      z[A]                      q[e]
N       -0.9960821126971532       -0.6965000203946300       -0.0442645619548645        0.7341426368359638
O       -0.5321169702982590       -0.6619746476741168        0.4111581063458739       -0.5298955726226741
O       -0.5702176562829770       -0.6720176975727954       -0.2679397007677883       -0.9999999617398537
N       -0.1195600037403682       -0.5931499673200160       -0.0291667046983384        0.4273931989476895
O       -0.7542757555935582       -1.3491749550490024       -0.0107447656642216       -0.2423757557512725
O       -0.6482717544168196       -1.2812534066814325        0.0055077874359165       -0.1983632862745158
N       -0.5399823724376971       -1.6481675172154397       -0.0064511540009560        0.5276124267382120

        RMSE         8.724332694E-02 kcal/mol
         MAE         5.738481945E-02 kcal/mol
     max. AE         8.023798958E-01 kcal/mol

Coordinates in bohr
s                   x[bohr]                   y[bohr]                   z[bohr]                      q[e]
+       -1.8823223914650391       -1.3161942849216424       -0.0836478991580541        0.7341426368359638
-       -1.0055553405720872       -1.2509507861005198        0.7769762152555659       -0.5298955726226741
-       -1.0775552022752739       -1.2699293998733292       -0.5063326525882426       -0.9999999617398537
+       -0.2259356626280095       -1.1208909895590913       -0.0551170838619637        0.4273931989476895
-       -1.4253746011445905       -2.5495711603694908       -0.0203046643876017       -0.2423757557512725
-       -1.2250560707178453       -2.4212180359377466        0.0104082098111197       -0.1983632862745158
+       -1.0204187964822153       -3.1145852164129813       -0.0121909142549584        0.5276124267382120
