8
s                      x[A]                      y[A]                      z[A]                      q[e]
N       -1.0207175386726610       -0.7516202611636499       -0.0782541581226439        0.7439097993321943
O       -0.5140017782840076       -0.6700606883526001        0.4797527046598297       -0.4458686237696219
O       -0.6129229173879823       -0.7028935840884070       -0.2863374043776072       -0.9999997664670560
N       -0.1019341624976487       -0.5845407797364711       -0.0128653217992614        0.3062623441026580
N       -0.6177010462467786       -1.3852908421964467       -0.0266968939135377        0.3583351369457837
O       -0.8119877023638898       -1.4128945930288914       -0.0051215880570394       -0.9054066951560870
N       -0.7496889249023827       -1.5987195411422739       -0.0037029841653906        0.6088451110872732
N       -0.2553334660010930       -1.9690531783198657        0.0028091840366174        0.0524363800584048

        RMSE         8.522195271E-02 kcal/mol
         MAE         5.734259047E-02 kcal/mol
     max. AE         7.236616808E-01 kcal/mol

Coordinates in bohr
s                   x[bohr]                   y[bohr]                   z[bohr]                      q[e]
+       -1.9288765995427384       -1.4203564439443850       -0.1478789270300682        0.7439097993321943
-       -0.9713225889550714       -1.2662311884221644        0.9066012197547337       -0.4458686237696219
-       -1.1582564498799004       -1.3282763692685515       -0.5410992737481471       -0.9999997664670560
+       -0.1926276499484703       -1.1046219828634993       -0.0243119347164864        0.3062623441026580
+       -1.1672858048151715       -2.6178202958561028       -0.0504498178969882        0.3583351369457837
-       -1.5344343747075178       -2.6699838249648020       -0.0096783987552201       -0.9054066951560870
+       -1.4167067473544244       -3.0211420841765060       -0.0069976259194953        0.6088451110872732
+       -0.4825103214059635       -3.7209712334868219        0.0053085884652150        0.0524363800584048
