3
s                      x[A]                      y[A]                      z[A]                      q[e]
O       -0.7119746662722550       -0.7300059992089049        0.5021300992302286       -0.4286748785961205
O       -0.7888459098427041       -0.7165127130292366       -0.4467624521787654       -0.6409454173151060
N       -1.1155520776174821       -0.6680368036396760       -0.1193305086873939        0.5975056876996150

        RMSE         4.622010312E-01 kcal/mol
         MAE         3.343653659E-01 kcal/mol
     max. AE         2.828775974E+00 kcal/mol

Coordinates in bohr
s                   x[bohr]                   y[bohr]                   z[bohr]                      q[e]
-       -1.3454371275187988       -1.3795114084460141        0.9488883668940946       -0.4286748785961205
-       -1.4907027247903084       -1.3540127930340160       -0.8442586777558166       -0.6409454173151060
+       -2.1080879053825150       -1.2624066006052368       -0.2255019798307405        0.5975056876996150
