2
s                      x[A]                      y[A]                      z[A]                      q[e]
O       -2.1655687849692273       -0.3899004009691197       -0.3299524782016574       -0.7864360431390488
N       -2.0419233564864712       -0.3371761837442086       -0.2355860067897050        0.9999997856444500

        RMSE         6.573567108E-01 kcal/mol
         MAE         4.876347291E-01 kcal/mol
     max. AE         3.967220179E+00 kcal/mol

Coordinates in bohr
s                   x[bohr]                   y[bohr]                   z[bohr]                      q[e]
-       -4.0923319094323150       -0.7368049740378282       -0.6235198182172266       -0.7864360431390488
+       -3.8586759129350225       -0.6371706433036001       -0.4451930318227907        0.9999997856444500
