15
s                      x[A]                      y[A]                      z[A]                      q[e]
O        1.6892636325931476       -0.7951222061056100       -0.4706413251774479       -0.6165302121605053
N        2.3132976719319811       -0.2845871300714876        0.9199729849071820        0.5678787519499048
O        2.1378652666280273       -0.3832409873737467        0.6508135600293518       -0.9845481297953196
N        1.7660688705591536       -0.6730490234711470       -0.1900114576640928        0.9999457493316273
N        1.0267430887375808        0.3057713792072479        0.0460775930870528        0.5707619288954306
N       -0.0661777142857910        0.2983015783082657       -0.0085003710469318        0.4064605523876837
O        0.7417511782765587        1.1754284829036197        0.0039573114876451       -0.6054416877709846
O       -0.1156916377581572        1.3830637171587084        0.0036017761725002       -0.2729701976936919
O       -0.6630084216583010       -0.7116188232332471        0.5118573788766296       -0.4258257084751046
O       -0.6910105481368632       -0.6537512424757883       -0.5085388742973231       -0.4494095314001982
N       -1.1174459561726868       -0.7325518427495410       -0.0160985971573478        0.3946446376123465
N       -0.3875047927397892       -1.9843658226616863        0.0075573601249797        0.1803063413823648
N       -1.8212017556818505       -0.3690659376959819       -0.0267126585946573        0.6522259256149276
N       -2.5848861839026793       -1.0632494925682685       -0.0267330499990713        0.5155270022969103
O       -2.3635372896267413       -0.8392956748064712       -0.0281109836272866       -0.9330254221753916

        RMSE         7.877106442E-01 kcal/mol
         MAE         4.796238988E-01 kcal/mol
     max. AE         6.679775238E+00 kcal/mol

Coordinates in bohr
s                   x[bohr]                   y[bohr]                   z[bohr]                      q[e]
-        3.1922456192970650       -1.5025632058094351       -0.8893832079079164       -0.6165302121605053
+        4.3714990466106372       -0.5377917346651552        1.7384969842945222        0.5678787519499048
-        4.0399798470558492       -0.7242205061864228        1.2298593871896826       -0.9845481297953196
+        3.3373864840534320       -1.2718783233673054       -0.3590696156841602        0.9999457493316273
+        1.9402632389206718        0.5778241637052088        0.0870740314548187        0.5707619288954306
+       -0.1250577556089430        0.5637082857944339       -0.0160633732434723        0.4064605523876837
-        1.4017065801783399        2.2212379127502304        0.0074782349047774       -0.6054416877709846
-       -0.2186255103685931        2.6136116394876274        0.0068063705312251       -0.2729701976936919
-       -1.2529043358062510       -1.3447646816314232        0.9672702613715329       -0.4258257084751046
-       -1.3058206857811647       -1.2354108024570125       -0.9609991965705660       -0.4494095314001982
+       -2.1116668171667294       -1.3843223554960824       -0.0304219396314612        0.3946446376123465
+       -0.7322779305805005       -3.7499079375494042        0.0142813408676673        0.1803063413823648
+       -3.4415725374416577       -0.6974335444806882       -0.0504796088267595        0.6522259256149276
+       -4.8847269530558810       -2.0092503439860359       -0.0505181429964154        0.5155270022969103
-       -4.4664381647014384       -1.5860389636655461       -0.0531220601728008       -0.9330254221753916
