2
s                      x[A]                      y[A]                      z[A]                      q[e]
O       -1.0762783508161260       -0.7749301261322150       -0.0025446601679488       -0.1763070283007805
N       -0.9577204271202482       -1.7344766708783654       -0.0091402391792863        0.1599888326805324

        RMSE         7.332989233E-01 kcal/mol
         MAE         5.595959459E-01 kcal/mol
     max. AE         3.662225991E+00 kcal/mol

Coordinates in bohr
s                   x[bohr]                   y[bohr]                   z[bohr]                      q[e]
-       -2.0338713178018990       -1.4644057047563768       -0.0048087107997848       -0.1763070283007805
+       -1.8098293120137630       -3.2776858789559662       -0.0172725487700305        0.1599888326805324
