6
s                      x[A]                      y[A]                      z[A]                      q[e]
O       -1.0619971398122257       -0.5717623084586300        0.3991417661839165       -0.3495191407391372
O       -1.1781871938390622       -0.5547044421498556       -0.3389132746742998       -0.6392056175056032
N       -1.0911621031901384       -0.6935948393531517       -0.0948635171832913        0.9996550612373086
N       -0.7122107382011477       -1.9078933482922869        0.0630417044854800        0.2606941621717392
O       -0.7078375852515627       -1.5794648682457730       -0.3449090555234357       -0.1236190486061309
O       -0.7039543560173803       -1.8209493020857916        0.2571424508321986       -0.1643236121784245

        RMSE         7.015017102E-02 kcal/mol
         MAE         4.618822923E-02 kcal/mol
     max. AE         6.456767653E-01 kcal/mol

Coordinates in bohr
s                   x[bohr]                   y[bohr]                   z[bohr]                      q[e]
-       -2.0068837402646524       -1.0804741718463504        0.7542686233191269       -0.3495191407391372
-       -2.2264511208775222       -1.0482394762380927       -0.6404532694164893       -0.6392056175056032
+       -2.0619975335079150       -1.3107042884083762       -0.1792660667740831        0.9996550612373086
+       -1.3458832388103144       -3.6053959048551460        0.1191315559596035        0.2606941621717392
-       -1.3376191774308608       -2.9847560257668437       -0.6517836531296211       -0.1236190486061309
-       -1.3302809376958846       -3.4410954692857194        0.4859288073018607       -0.1643236121784245
