8
s                      x[A]                      y[A]                      z[A]                      q[e]
O       -0.7549328698395911       -0.9717716724501081       -0.2331725696007093       -0.4371476950749207
O       -1.1062474025786522       -0.4583667181851444       -0.4068593934200032       -0.5545887480037041
O       -0.9738553883958326       -0.5695221303243991        0.3720864997434615       -0.3219630518797482
N       -0.9486863833931422       -0.6044610277363202       -0.2088556442372110        0.9459016952297986
O       -0.8558460967484898       -1.5534735073107193        0.2257706840645127       -0.4015893735220475
N       -0.8838592737241193       -1.3937558217030890        0.0159681881675178        0.9999969570301017
N       -0.7986358813374473       -2.0682668158993760       -0.0117253150258993        0.1221284400128523
O       -0.8946057440058027       -1.6003989621778227       -0.1753737147050335       -0.3690564194125801

        RMSE         4.684085272E-02 kcal/mol
         MAE         2.820362569E-02 kcal/mol
     max. AE         5.452994477E-01 kcal/mol

Coordinates in bohr
s                   x[bohr]                   y[bohr]                   z[bohr]                      q[e]
-       -1.4266163671027294       -1.8363823174088165       -0.4406322965145941       -0.4371476950749207
-       -2.0905046178727424       -0.8661875623948331       -0.7688528251337048       -0.5545887480037041
-       -1.8403199698694852       -1.0762408487004151        0.7031415794953767       -0.3219630518797482
+       -1.7927574435641223       -1.1422657959344131       -0.3946799673643834        0.9459016952297986
-       -1.6173147283967291       -2.9356394719716685        0.4266447600391950       -0.4015893735220475
+       -1.6702519607846500       -2.6338167887812700        0.0301755023563850        0.9999969570301017
+       -1.5092030896914121       -3.9084578364225266       -0.0221576341336651        0.1221284400128523
-       -1.6905598464324032       -3.0243157299830261       -0.3314082903966895       -0.3690564194125801
