30
s                      x[A]                      y[A]                      z[A]                      q[e]
N        1.4906665428477606       -0.1305817663548213       -0.1799764440656973        0.1227979460792230
O        1.8465320286794209       -1.0953805351639492       -0.0941972724720906       -0.2912630138636494
O        2.2611482205289097       -0.2293585491618717        0.5018906518888799       -0.4188682893443009
N        2.3705588669498683       -0.1656857058351147        0.9093386535647467        0.4287069661693624
O        2.0726629968482966       -0.2745827261057889        0.6517829417653681       -0.5583682544542766
N        2.0017258952683528       -0.4400450739397011        0.0657062552330455        0.9400809812629000
N        2.3164302700702923       -0.2549602746881990       -0.9942446313758987        0.4131556317023932
O        2.1162250751841425       -0.3192776896135854       -0.7010204909492392       -0.7724331691774557
O        1.7516172869430291       -1.4072711067432373        0.1840357039386049       -0.9007038605068746
N        1.7512355215433530       -1.4533124245149167        0.1354956936810796        0.9922607189436909
O        0.3924446953616566        0.4468855415265486        0.0065855326766335       -0.7888266521011255
N        0.9460196719631658        0.2476949363772337        0.0430867592567522        0.6553478015505786
N        0.0808776559915550        0.4133233962218330       -0.0038535289827888        0.9793846102081349
O        0.0579111870593559        1.3681065893301021        0.0028553698666641       -0.5308371652299072
O        0.6584964870210077        1.5408263783537306        0.0024424038102185       -0.9919737529997424
N        0.5361431454766304        1.6165779037512595        0.0040106933806838        0.7841171168279388
N       -1.0151962840795605       -0.4612171808211754        0.2567110634842640        0.3892650832305673
O       -0.5822561520695781       -0.7068930657539766        0.5081473040267370       -0.3884151957631403
O       -0.6105565011481211       -0.6626218143644055       -0.4009927268298923       -0.7175359419447982
N       -1.0302805682995242       -0.5674102202065525       -0.2873386374896694        0.3797411462763788
N       -0.3297336016102994       -0.4705194027953807       -0.0076528228835987        0.7031283841946222
O       -0.6357562651484280       -0.4207283115568473        0.0834047977739870       -0.8827271402343551
N       -0.4751721603708473       -1.7827270495976466        0.0005316052737002        0.2467733199527143
N       -2.4689656831450253       -0.0490663769859279       -0.2428200205962807        0.6690678283204404
N       -1.6001738857471934       -0.4097031457286524       -0.1170464227201438        0.4585460685392948
O       -2.2267556284084113        0.0273151507759659       -0.4057621144349778       -0.9858286316360814
N       -2.0483618970056576        0.7494140647072890        1.0523020585523248        0.0596028481195284
N       -2.7555794025094578       -0.9670477777028447        0.0179952957757891        0.2211372702997535
O       -2.4744811043896404       -0.5907249431895503        0.0587779523350516       -0.4700025510596642
N       -2.1031528307289276        0.4292786168326976       -0.8918166502224912        0.2546698966378499

        RMSE         5.089921728E-01 kcal/mol
         MAE         2.891052985E-01 kcal/mol
     max. AE         3.808720758E+00 kcal/mol

Coordinates in bohr
s                   x[bohr]                   y[bohr]                   z[bohr]                      q[e]
+        2.8169515103653140       -0.2467637753891358       -0.3401061883179476        0.1227979460792230
-        3.4894398160901452       -2.0699692146172919       -0.1780070467373792       -0.2912630138636494
-        4.2729508658659592       -0.4334248424482925        0.9484358769974767       -0.4188682893443009
+        4.4797070228108735       -0.3131006069315368        1.7184010105299472        0.4287069661693624
-        3.9167654144139421       -0.5188861511215406        1.2316912531817743       -0.5583682544542766
+        3.7827137202940664       -0.8315646726028749        0.1241668271198863        0.9400809812629000
+        4.3774187991531637       -0.4818050920321940       -1.8788500550072236        0.4131556317023932
-        3.9990858119244308       -0.6033473913386078       -1.3247367362280504       -0.7724331691774557
-        3.3100769489398032       -2.6593569760146476        0.3477770777498037       -0.9007038605068746
+        3.3093555168902395       -2.7463624570582961        0.2560497522361673        0.9922607189436909
-        0.7416129936222611        0.8444912829120880        0.0124448531490905       -0.7888266521011255
+        1.7877180893058389        0.4680755924156730        0.0814221746287966        0.6553478015505786
+        0.1528366194930323        0.7810680201033552       -0.0072821143939850        0.9793846102081349
-        0.1094362831423401        2.5853467642680981        0.0053958670348801       -0.5308371652299072
-        1.2443780150457999        2.9117398619696129        0.0046154742890876       -0.9919737529997424
+        1.0131637089923256        3.0548894985566055        0.0075791120626790        0.7841171168279388
+       -1.9184429404928525       -0.8715741561077822        0.4851136033602768        0.3892650832305673
-       -1.1003046622744279       -1.3358342942602679        0.9602592360002868       -0.3884151957631403
-       -1.1537845712877268       -1.2521737539026843       -0.7577664320090217       -0.7175359419447982
+       -1.9469481064671490       -1.0722499169761015       -0.5429913301176844        0.3797411462763788
+       -0.6231062014042862       -0.8891528079972459       -0.0144617393366379        0.7031283841946222
-       -1.2014052236744786       -0.7950612820687351        0.1576122253420301       -0.8827271402343551
+       -0.8979452455430270       -3.3688658801850262        0.0010045883741424        0.2467733199527143
+       -4.6656689542979883       -0.0927220144718707       -0.4588633367049996        0.6690678283204404
+       -3.0238903971718414       -0.7742267381656901       -0.2211856829056364        0.4585460685392948
-       -4.2079582860136382        0.0516181540421624       -0.7667792683687865       -0.9858286316360814
+       -3.8708429911639484        1.4161873368629074        1.9885626919193813        0.0596028481195284
+       -5.2072903876955952       -1.8274554500909999        0.0340061805628495        0.2211372702997535
-       -4.6760915899168429       -1.1163083581048845        0.1110742321284620       -0.4700025510596642
+       -3.9743828500590399        0.8112190173291493       -1.6852892230437275        0.2546698966378499
