3
s                      x[A]                      y[A]                      z[A]                      q[e]
O        0.0000500866889592       -0.7712457396169260       -0.2219341615070576       -0.9999999990857913
N        0.0000532603188322       -0.7665570094962370       -0.0683500021534249        0.6235447405950034
N        0.0000228305116234       -0.8669549621747276       -0.4794617192167403        0.5929520757169249

        RMSE         1.959687659E-01 kcal/mol
         MAE         1.418928343E-01 kcal/mol
     max. AE         1.233249234E+00 kcal/mol

Coordinates in bohr
s                   x[bohr]                   y[bohr]                   z[bohr]                      q[e]
-        0.0000946501246639       -1.4574432233021506       -0.4193947831314638       -0.9999999990857913
+        0.0001006474159475       -1.4485828074978635       -0.1291627847444259        0.6235447405950034
+        0.0000431434142724       -1.6383074416168859       -0.9060513369607998        0.5929520757169249
