2
s                      x[A]                      y[A]                      z[A]                      q[e]
N        1.1934619291127151        0.6647080975810931        0.2356090196725795        0.9675534308971793
O        1.1054847536663515        0.8387446326569021        0.2699756639194317       -0.9999999995812906

        RMSE         5.706427711E-01 kcal/mol
         MAE         4.665693251E-01 kcal/mol
     max. AE         2.719532496E+00 kcal/mol

Coordinates in bohr
s                   x[bohr]                   y[bohr]                   z[bohr]                      q[e]
+        2.2553161871835963        1.2561162578023630        0.4452365198687809        0.9675534308971793
-        2.0890634202986158        1.5849976449192771        0.5101800653463724       -0.9999999995812906
