4
s                      x[A]                      y[A]                      z[A]                      q[e]
O       -1.5382859751551543        1.9587271215779742       -1.2696668539043698       -0.6084750456856568
O       -1.0829320554536062        1.8342617235980632       -0.8386010996984032       -0.9999999970234741
N       -0.7986012958706039        2.1177683972814396       -0.9333247081163263        0.3942770335353776
N       -1.4980640492295811        1.8775758297469451       -1.0851457805565408        0.9999999256739548

        RMSE         1.557787532E-01 kcal/mol
         MAE         1.018133927E-01 kcal/mol
     max. AE         1.596416737E+00 kcal/mol

Coordinates in bohr
s                   x[bohr]                   y[bohr]                   z[bohr]                      q[e]
-       -2.9069391956760668        3.7014578142887098       -2.3993226244509351       -0.6084750456856568
-       -2.0464449972864251        3.4662523000105656       -1.5847264069377374       -0.9999999970234741
+       -1.5091377326311570        4.0020022680116893       -1.7637280844627237        0.3942770335353776
+       -2.8309307714382816        3.5481040980009615       -2.0506283314480225        0.9999999256739548
