3
s                      x[A]                      y[A]                      z[A]                      q[e]
N       -1.6249271591150871        1.8648418972386678       -0.6629761837363787        0.3773072302521116
N       -0.8754770079423132        2.2605167188226973       -0.7715096450498665        0.4084946860122563
O       -1.1798315524528853        1.9409969848233133       -0.7256868417966217       -0.9999999997641663

        RMSE         3.478102242E-01 kcal/mol
         MAE         2.341215129E-01 kcal/mol
     max. AE         2.517921490E+00 kcal/mol

Coordinates in bohr
s                   x[bohr]                   y[bohr]                   z[bohr]                      q[e]
+       -3.0706673045457493        3.5240404530602532       -1.2528434149629641        0.3773072302521116
+       -1.6544117741462399        4.2717575005934583       -1.4579419322934286        0.4084946860122563
-       -2.2295585083096854        3.6679527116554866       -1.3713493838440578       -0.9999999997641663
