3
s                      x[A]                      y[A]                      z[A]                      q[e]
N        1.1169720091383299        0.6706950498693719        0.3104760690221907        0.5415323922274777
N        0.2519995785677378        0.8122727723356183        0.2013769380593115        0.4260210384199855
O        0.6935214411886947        0.9016515446077878        0.2981821197426638       -0.9999999993315746

        RMSE         1.151799036E-01 kcal/mol
         MAE         8.377681046E-02 kcal/mol
     max. AE         7.257005644E-01 kcal/mol

Coordinates in bohr
s                   x[bohr]                   y[bohr]                   z[bohr]                      q[e]
+        2.1107711870738219        1.2674299579533930        0.5867147389606816        0.5415323922274777
+        0.4762101872238167        1.5349730788806766        0.3805472609153837        0.4260210384199855
-        1.3105655859794412        1.7038744799047409        0.5634825418221062       -0.9999999993315746
