3
s                      x[A]                      y[A]                      z[A]                      q[e]
O        0.6338969712637516        2.5662114693277771        1.2115430199319959       -0.9999999976367195
N        0.5390992175396282        2.4066139133225088        1.0856541763091510        0.7171343386379552
N        0.5595794987248067        2.8797123419597512        1.3479022841285515        0.3420580562265467

        RMSE         1.044414987E-01 kcal/mol
         MAE         6.891313928E-02 kcal/mol
     max. AE         6.842869690E-01 kcal/mol

Coordinates in bohr
s                   x[bohr]                   y[bohr]                   z[bohr]                      q[e]
-        1.1978916674457014        4.8494368570382207        2.2894844968815669       -0.9999999976367195
+        1.0187498755985085        4.5478411858958463        2.0515890601838018        0.7171343386379552
+        1.0574519980108628        5.4418676464046891        2.5471661608820044        0.3420580562265467
