1
s                      x[A]                      y[A]                      z[A]                      q[e]
N        0.2273884587481831        2.7771269992350263        1.1493843823920442        0.0591923972277823

        RMSE         2.491802043E+00 kcal/mol
         MAE         2.025532039E+00 kcal/mol
     max. AE         7.756300800E+00 kcal/mol

Coordinates in bohr
s                   x[bohr]                   y[bohr]                   z[bohr]                      q[e]
+        0.4297019111240312        5.2480094441687308        2.1720216955994567        0.0591923972277823
