1
s                      x[A]                      y[A]                      z[A]                      q[e]
N       -2.5244222245963290        2.0180780038185731       -1.5607604866914919        0.0550271913469312

        RMSE         1.739929285E+00 kcal/mol
         MAE         1.514968729E+00 kcal/mol
     max. AE         4.544879011E+00 kcal/mol

Coordinates in bohr
s                   x[bohr]                   y[bohr]                   z[bohr]                      q[e]
+       -4.7704666295060525        3.8136147270277401       -2.9494098672831872        0.0550271913469312
