1
s                      x[A]                      y[A]                      z[A]                      q[e]
O        0.5464882084321228        1.4549357653068564        0.3790218693291981       -0.0324465686841113

        RMSE         2.681355344E+00 kcal/mol
         MAE         2.266542141E+00 kcal/mol
     max. AE         9.667677180E+00 kcal/mol

Coordinates in bohr
s                   x[bohr]                   y[bohr]                   z[bohr]                      q[e]
-        1.0327130447288253        2.7494301265633458        0.7162475285912488       -0.0324465686841113
