3
s                      x[A]                      y[A]                      z[A]                      q[e]
O        2.2451222970066018       -0.9290131166061311       -0.0018785387205849       -0.5966584776591237
N        2.1760743044062423       -1.0385788895292170       -0.3379411946090007        0.9999999966498487
O        2.0029052897094268       -0.9579634795609629       -0.6413200239699842       -0.5302782817762758

        RMSE         1.660978164E+00 kcal/mol
         MAE         1.236295620E+00 kcal/mol
     max. AE         8.391753446E+00 kcal/mol

Coordinates in bohr
s                   x[bohr]                   y[bohr]                   z[bohr]                      q[e]
-        4.2426662595012647       -1.7555803573436055       -0.0035499236979733       -0.5966584776591237
+        4.1121844639739464       -1.9626296608923408       -0.6386163043210568        0.9999999966498487
-        3.7849424527815838       -1.8102886145608379       -1.2119192040753197       -0.5302782817762758
