4
s                      x[A]                      y[A]                      z[A]                      q[e]
O        0.8267728229664124        2.5392818377807846        1.0016486090086676       -0.4863606709887959
N        0.7079520803920719        2.4121685148847405        1.0852263718315212        0.8463591388702900
O        0.7647302494651633        2.4043780425889580        1.3556250114323403       -0.4012549898340607
N        0.5624855788642318        2.9997290696526866        1.4016697459488914        0.1004489191803489

        RMSE         6.435898250E-02 kcal/mol
         MAE         3.915007047E-02 kcal/mol
     max. AE         8.506653828E-01 kcal/mol

Coordinates in bohr
s                   x[bohr]                   y[bohr]                   z[bohr]                      q[e]
-        1.5623742033781494        4.7985472287549156        1.8928415449721725       -0.4863606709887959
+        1.3378355418891190        4.5583378615845040        2.0507806268858366        0.8463591388702900
-        1.4451307313422015        4.5436160025575090        2.5617600004277605       -0.4012549898340607
+        1.0629436935730083        5.6686663922179870        2.6487719381834567        0.1004489191803489
