4
s                      x[A]                      y[A]                      z[A]                      q[e]
N       -0.5053625702434207        1.0685159294550894       -0.2291048456333388        0.9999999853400194
O       -0.8141773709786013        1.2496166997134488       -0.1156969949354867       -0.5347364971231885
N       -1.1412898480176179        0.8659144568984374       -0.4376000505711773        0.8581850366597578
O       -0.8735488726620227        0.9415541291540762       -0.5336281848209410       -0.9999999536980562

        RMSE         4.658130175E-02 kcal/mol
         MAE         2.891809083E-02 kcal/mol
     max. AE         4.430924806E-01 kcal/mol

Coordinates in bohr
s                   x[bohr]                   y[bohr]                   z[bohr]                      q[e]
+       -0.9549968518175089        2.0192024673591362       -0.4329454122623031        0.9999999853400194
-       -1.5385722486948330        2.3614333242568941       -0.2186356339665513       -0.5347364971231885
+       -2.1567252425186867        1.6363411716126035       -0.8269442480660205        0.8581850366597578
-       -1.6507681265336580        1.7792794363951521       -1.0084111221367706       -0.9999999536980562
