2
s                      x[A]                      y[A]                      z[A]                      q[e]
O       -0.8033933607832091        2.9126123804505331       -0.9396579626343714       -0.8894673324952397
N       -0.7711649458847292        2.8756702288731235       -0.9639296809762153        0.9999999992707342

        RMSE         5.988869251E-01 kcal/mol
         MAE         4.271038165E-01 kcal/mol
     max. AE         3.144533940E+00 kcal/mol

Coordinates in bohr
s                   x[bohr]                   y[bohr]                   z[bohr]                      q[e]
-       -1.5181934228913969        5.5040397086692874       -1.7756962009846473       -0.8894673324952397
+       -1.4572905452756451        5.4342291597028334       -1.8215631012449838        0.9999999992707342
