3
s                      x[A]                      y[A]                      z[A]                      q[e]
N       -2.4093400323011620        1.8268809356535023       -1.2642188962353704        0.1866844117776549
O       -1.9207980569826912        1.9375906324514383       -1.1719386395856810       -0.9999999857517545
N       -1.8782283003915985        1.9943089641404486       -1.2194670481294201        0.8683427653210307

        RMSE         6.803329848E-02 kcal/mol
         MAE         4.297747546E-02 kcal/mol
     max. AE         6.181495678E-01 kcal/mol

Coordinates in bohr
s                   x[bohr]                   y[bohr]                   z[bohr]                      q[e]
+       -4.5529928041509136        3.4523046322052648       -2.3890274765134385        0.1866844117776549
-       -3.6297822700088256        3.6615156385858394       -2.2146430646585671       -0.9999999857517545
+       -3.5493370888242572        3.7686977517709446       -2.3044587399851038        0.8683427653210307
