21
s                      x[A]                      y[A]                      z[A]                      q[e]
N       -2.1029341363053224        1.5593287001475875        0.0014414172694241        0.0674830594396155 
O       -1.8215680978687512       -0.2928189921253438        0.3553409767299558       -0.3208585618799399 
N       -1.9335067378186122       -0.3897750577575949        0.0032714944954701        0.5837233487087217 
N       -3.3181690314300973       -0.6057278183791525       -0.0152638020815155        0.0603596403875642 
O       -1.8337732417378108       -0.3170718232822388       -0.3125348081769690       -0.3975891472008247 
O       -0.9078761357440095       -0.1775556061912365        0.0725287144180647       -0.9989546264552308 
N       -0.7896326320235028       -0.0201792245078944        0.0690571892703331        0.7850995413360939 
N       -0.9894380235744396       -1.3897269386575133       -0.0055175805100002        0.9999999845558203 
O       -1.0008404934598687       -1.3996233820535560       -0.2824401739142726       -0.3971613598890944 
O       -1.0397602028607829       -1.4154641362233868        0.2625650372994405       -0.3899132652335964 
N        1.8425182277237919       -1.1968269709173656       -0.0993550064786235        0.1697852617266175 
O        1.5206801054985088       -0.9199030603565159       -0.0551399159971348       -0.6690588480521302 
O        0.3821258707591121        0.4168113553172978       -0.3395234727628684       -0.9901728949002753 
N        0.2138263089908891        0.4915811314078455       -0.2215874590002137        0.8747739507890371 
O        0.5598201772233659        0.4879223929687019        0.3272105031212053       -0.3308855641453461 
N        0.7889974996339100       -0.1012889565275891       -0.0790905466354729        0.9999871023051201 
N        2.2943821673022136        1.6754072543337453        0.0136098687116122        0.0645688410078690 
N        1.0499640322809314        1.1145309252153683        0.0207019582672008        0.9999999842936395 
O        0.9294954559814755        1.0729012532216409       -0.3305840579998051       -0.6482731499542912 
O        0.9967525949358890        1.1381200632884942        0.3767568855868006       -0.5532930210255078 
N       -0.2011044055996940        2.2659290795553741       -0.0109963065869052        0.0903797241861383 

        RMSE         1.528474202e-01 kcal/mol
         MAE         9.518788086e-02 kcal/mol
     max. AE         1.793444468e+00 kcal/mol

Coordinates in bohr
s                   x[bohr]                   y[bohr]                   z[bohr]                      q[e]
+       -3.9739692896902623        2.9467039694387527        0.0027238836744476        0.0674830594396155 
-       -3.4422645745472473       -0.5533476593749209        0.6714970785411053       -0.3208585618799399 
+       -3.6537979315890379       -0.7365680563525931        0.0061822281696517        0.5837233487087217 
+       -6.2704302532611447       -1.1446596004090650       -0.0288444034782866        0.0603596403875642 
-       -3.4653289521112112       -0.5991788647092332       -0.5906051493541341       -0.3975891472008247 
-       -1.7156371281451961       -0.3355314434412067        0.1370593965555644       -0.9989546264552308 
+       -1.4921893061814337       -0.0381332049823621        0.1304991652638175        0.7850995413360939 
+       -1.8697667472576378       -2.6262031130386210       -0.0104267152839402        0.9999999845558203 
-       -1.8913142909343621       -2.6449046793188313       -0.5337345368705048       -0.3971613598890944 
-       -1.9648618772580293       -2.6748393641525849        0.4961759746824810       -0.3899132652335964 
+        3.4818545793988624       -2.2616750307999620       -0.1877537378401762        0.1697852617266175 
-        2.8736687157075220       -1.7383647201483825       -0.1041993322690065       -0.6690588480521302 
-        0.7221131888898989        0.7876592504866864       -0.6416063302197166       -0.9901728949002753 
+        0.4040731331464970        0.9289536395267973       -0.4187395800205408        0.8747739507890371 
-        1.0579067378416522        0.9220396264128579        0.6183381914910231       -0.3308855641453461 
+        1.4909890799986187       -0.1914083735083607       -0.1494594614296334        0.9999871023051201 
+        4.3357536093313858        3.1660606300034484        0.0257189226057676        0.0645688410078690 
+        1.9841443188965253        2.1061580544778846        0.0391210285524420        0.9999999842936395 
-        1.7564917194538017        2.0274893814144441       -0.6247132858190815       -0.6482731499542912 
-        1.8835892828548382        2.1507350617433443        0.7119672780773738       -0.5532930210255078 
+       -0.3800322216836971        4.2819850699602675       -0.0207800063358881        0.0903797241861383 

total molecule built from fragment files: /home/boittier/pydcm/models/fbutadiene-18/3-fragfit/frag1/fit2/5charges.xyz /home/boittier/pydcm/models/fbutadiene-18/3-fragfit/frag2/fit1/5charges.xyz /home/boittier/pydcm/models/fbutadiene-18/3-fragfit/frag3/fit1/6charges.xyz /home/boittier/pydcm/models/fbutadiene-18/3-fragfit/frag4/fit1/5charges.xyz 