26
s                      x[A]                      y[A]                      z[A]                      q[e]
N       -2.1029341363053224        1.5593287001475875        0.0014414172694241        0.0674830594396155 
O       -1.8215680978687512       -0.2928189921253438        0.3553409767299558       -0.3208585618799399 
N       -1.9335067378186122       -0.3897750577575949        0.0032714944954701        0.5837233487087217 
N       -3.3181690314300973       -0.6057278183791525       -0.0152638020815155        0.0603596403875642 
O       -1.8337732417378108       -0.3170718232822388       -0.3125348081769690       -0.3975891472008247 
O       -1.1232188411188095       -0.3364308434043035        0.3307987667453413       -0.5699544529824345 
O       -0.3364272079676025       -0.3361065782597352        0.0623518649116948       -0.2365128670970741 
O       -1.0762147253750536       -0.3032362058241054       -0.4185313084812466       -0.3705826045063005 
N       -0.8567835058448698       -0.3085461806635308        0.0249496648870642        0.9999999907045415 
N       -0.8047229121062780       -1.8337818688394849        0.0139094861184773        0.1272748034212361 
O       -0.8370332463808239       -1.3488030075281470        0.2499207836522802       -0.5182141915772080 
N       -0.8513929088353441       -1.2415230906879886        0.0331198412279386        0.9999998870413414 
O       -0.8169968292325835       -1.3384519925623133       -0.2378478509474425       -0.4329402906901093 
N        1.6978188849799811       -1.1654877753989288        0.0273561229891782        0.4844664243256026 
O        1.3793869645617878       -0.6402773326408870       -0.0156026459106898       -0.8591906742807199 
N        1.1017833710774585       -0.5763520261555418        0.0252332118083551        0.9988142167569625 
O        1.4548131624269560       -0.9948417595209677        0.0350986278257947       -0.9989077555068347 
O        0.5368795791354700        0.3274395820131901       -0.1690251307241246       -0.9501991572984190 
N        0.2121391244914014        0.4588851545729090       -0.0339327820305171        0.7171111576652400 
O        0.5727703460786756        0.3947926545240942        0.4336847688171439       -0.3298866363874070 
N        0.9770759885183545       -0.1256662547980841       -0.0338338137483444        0.9922214324485987 
N        2.2943821673022136        1.6754072543337453        0.0136098687116122        0.0645688410078690 
N        1.0499640322809314        1.1145309252153683        0.0207019582672008        0.9999999842936395 
O        0.9294954559814755        1.0729012532216409       -0.3305840579998051       -0.6482731499542912 
O        0.9967525949358890        1.1381200632884942        0.3767568855868006       -0.5532930210255078 
N       -0.2011044055996940        2.2659290795553741       -0.0109963065869052        0.0903797241861383 

        RMSE         9.154954683e-02 kcal/mol
         MAE         5.659617442e-02 kcal/mol
     max. AE         1.517343922e+00 kcal/mol

Coordinates in bohr
s                   x[bohr]                   y[bohr]                   z[bohr]                      q[e]
+       -3.9739692896902623        2.9467039694387527        0.0027238836744476        0.0674830594396155 
-       -3.4422645745472473       -0.5533476593749209        0.6714970785411053       -0.3208585618799399 
+       -3.6537979315890379       -0.7365680563525931        0.0061822281696517        0.5837233487087217 
+       -6.2704302532611447       -1.1446596004090650       -0.0288444034782866        0.0603596403875642 
-       -3.4653289521112112       -0.5991788647092332       -0.5906051493541341       -0.3975891472008247 
-       -2.1225758349473884       -0.6357621081477293        0.6251190265155009       -0.5699544529824345 
-       -0.6357552381685154       -0.6351493358768414        0.1178279395613061       -0.2365128670970741 
-       -2.0337509358552506       -0.5730333388302706       -0.7909094906797752       -0.3705826045063005 
+       -1.6190860575988706       -0.5830677362831449        0.0471480301439461        0.9999999907045415 
+       -1.5207058006291070       -3.4653452549694510        0.0262851174061575        0.1272748034212361 
-       -1.5817634790080697       -2.5488680968277806        0.4722817999589919       -0.5182141915772080 
+       -1.6088993063359003       -2.3461384499200868        0.0625874247067413        0.9999998870413414 
-       -1.5439001408046094       -2.5293075148384574       -0.4494672652680413       -0.4329402906901093 
+        3.2084124708825446       -2.2024525385669556        0.0516955765599880        0.4844664243256026 
-        2.6066633952684777       -1.2099487154029713       -0.0294847254683540       -0.8591906742807199 
+        2.0820686701323909       -1.0891474024083942        0.0476838561300970        0.9988142167569625 
-        2.7491982415955718       -1.8799783275113240        0.0663267891666034       -0.9989077555068347 
-        1.0145552934409281        0.6187710878266465       -0.3194111822558905       -0.9501991572984190 
+        0.4008848167502520        0.8671672023791542       -0.0641236600685672        0.7171111576652400 
-        1.0823790084842895        0.7460499393625621        0.8195453784937397       -0.3298866363874070 
+        1.8464058883401697       -0.2374747875819690       -0.0639366371336984        0.9922214324485987 
+        4.3357536093313858        3.1660606300034484        0.0257189226057676        0.0645688410078690 
+        1.9841443188965253        2.1061580544778846        0.0391210285524420        0.9999999842936395 
-        1.7564917194538017        2.0274893814144441       -0.6247132858190815       -0.6482731499542912 
-        1.8835892828548382        2.1507350617433443        0.7119672780773738       -0.5532930210255078 
+       -0.3800322216836971        4.2819850699602675       -0.0207800063358881        0.0903797241861383 

total molecule built from fragment files: /home/boittier/pydcm/models/fbutadiene-18/3-fragfit/frag1/fit2/5charges.xyz /home/boittier/pydcm/models/fbutadiene-18/3-fragfit/frag2/fit1/8charges.xyz /home/boittier/pydcm/models/fbutadiene-18/3-fragfit/frag3/fit2/8charges.xyz /home/boittier/pydcm/models/fbutadiene-18/3-fragfit/frag4/fit1/5charges.xyz 