27
s                      x[A]                      y[A]                      z[A]                      q[e]
N       -2.1029341363053224        1.5593287001475875        0.0014414172694241        0.0674830594396155 
O       -1.8215680978687512       -0.2928189921253438        0.3553409767299558       -0.3208585618799399 
N       -1.9335067378186122       -0.3897750577575949        0.0032714944954701        0.5837233487087217 
N       -3.3181690314300973       -0.6057278183791525       -0.0152638020815155        0.0603596403875642 
O       -1.8337732417378108       -0.3170718232822388       -0.3125348081769690       -0.3975891472008247 
O       -1.2410770366370090       -0.3269412057614316        0.3462316323914562       -0.5618948723649266 
O       -0.3736103091482048       -0.6422351692702809        0.0658093352777394       -0.0896216452931936 
O       -1.2132717993265405       -0.3210318176381760       -0.3724639018948213       -0.4231531195323845 
N       -1.0913856108780744       -0.3624657591842979        0.0310077235669385        0.9999676595559438 
N       -0.8288626333656184       -1.5654754347363147       -0.1322729662178631        0.5752042876408124 
O       -0.8241815997232937       -1.5492814205564633       -0.3156120662828491       -0.3732828877122909 
O       -0.8713936062568464       -1.4540964347208356        0.3474058994883278       -0.1281491479799680 
N        1.6978188849799811       -1.1654877753989288        0.0273561229891782        0.4844664243256026 
O        1.3793869645617878       -0.6402773326408870       -0.0156026459106898       -0.8591906742807199 
N        1.1017833710774585       -0.5763520261555418        0.0252332118083551        0.9988142167569625 
O        1.4548131624269560       -0.9948417595209677        0.0350986278257947       -0.9989077555068347 
O        0.5368795791354700        0.3274395820131901       -0.1690251307241246       -0.9501991572984190 
N        0.2121391244914014        0.4588851545729090       -0.0339327820305171        0.7171111576652400 
O        0.5727703460786756        0.3947926545240942        0.4336847688171439       -0.3298866363874070 
N        0.9770759885183545       -0.1256662547980841       -0.0338338137483444        0.9922214324485987 
N        1.9617084132332814        1.1933969461957439       -0.0583326851871096        0.7389269704704383 
N        2.0879813191946379        1.5956838225677346       -0.0450594061265096        0.2968811686825609 
O        1.9706362148760073        1.2941174656748531       -0.0642516136957789       -0.9249509587313844 
O        0.6175233063149248        1.1684311847051185        0.3444689461818222       -0.3219089356207842 
N        0.4323367637463370        1.1240943655667197       -0.1297347098271910        0.6291363796290254 
O        0.5367892444005000        1.0574386854225200       -0.3877973830473114       -0.5467668963069492 
N       -0.0771848447056652        2.3524329102160957        0.0460761345200155        0.0820646503849409 

        RMSE         8.915785401e-02 kcal/mol
         MAE         5.423632977e-02 kcal/mol
     max. AE         1.355111089e+00 kcal/mol

Coordinates in bohr
s                   x[bohr]                   y[bohr]                   z[bohr]                      q[e]
+       -3.9739692896902623        2.9467039694387527        0.0027238836744476        0.0674830594396155 
-       -3.4422645745472473       -0.5533476593749209        0.6714970785411053       -0.3208585618799399 
+       -3.6537979315890379       -0.7365680563525931        0.0061822281696517        0.5837233487087217 
+       -6.2704302532611447       -1.1446596004090650       -0.0288444034782866        0.0603596403875642 
-       -3.4653289521112112       -0.5991788647092332       -0.5906051493541341       -0.3975891472008247 
-       -2.3452955299876304       -0.6178292932715973        0.6542829138055364       -0.5618948723649266 
-       -0.7060211108062430       -1.2136484901629698        0.1243616111668349       -0.0896216452931936 
-       -2.2927512504228473       -0.6066621689583571       -0.7038547152260046       -0.4231531195323845 
+       -2.0624197524603840       -0.6849609651081969        0.0585961010717684        0.9999676595559438 
+       -1.5663232592504426       -2.9583196135360970       -0.2499596618511058        0.5752042876408124 
-       -1.5574773883230306       -2.9277173640806748       -0.5964203239704458       -0.3732828877122909 
-       -1.6466951440434381       -2.7478438226225665        0.6565019568560524       -0.1281491479799680 
+        3.2084124708825446       -2.2024525385669556        0.0516955765599880        0.4844664243256026 
-        2.6066633952684777       -1.2099487154029713       -0.0294847254683540       -0.8591906742807199 
+        2.0820686701323909       -1.0891474024083942        0.0476838561300970        0.9988142167569625 
-        2.7491982415955718       -1.8799783275113240        0.0663267891666034       -0.9989077555068347 
-        1.0145552934409281        0.6187710878266465       -0.3194111822558905       -0.9501991572984190 
+        0.4008848167502520        0.8671672023791542       -0.0641236600685672        0.7171111576652400 
-        1.0823790084842895        0.7460499393625621        0.8195453784937397       -0.3298866363874070 
+        1.8464058883401697       -0.2374747875819690       -0.0639366371336984        0.9922214324485987 
+        3.7070913705421997        2.2551932239419732       -0.1102327911829033        0.7389269704704383 
+        3.9457125625934193        3.0154051890948392       -0.0851499307881472        0.2968811686825609 
-        3.7239624693275246        2.4455274071869382       -0.1214179442104011       -0.9249509587313844 
-        1.1669498405095118        2.2080147756279493        0.6509519198654442       -0.3219089356207842 
+        0.8169980182786714        2.1242303362502590       -0.2451630527839227        0.6291363796290254 
-        1.0143845855445819        1.9982693651939558       -0.7328307930555733       -0.5467668963069492 
+       -0.1458582069663506        4.4454536068732864        0.0870712688567029        0.0820646503849409 

total molecule built from fragment files: /home/boittier/pydcm/models/fbutadiene-18/3-fragfit/frag1/fit2/5charges.xyz /home/boittier/pydcm/models/fbutadiene-18/3-fragfit/frag2/fit1/7charges.xyz /home/boittier/pydcm/models/fbutadiene-18/3-fragfit/frag3/fit2/8charges.xyz /home/boittier/pydcm/models/fbutadiene-18/3-fragfit/frag4/fit1/7charges.xyz 