37
s                      x[A]                      y[A]                      z[A]                      q[e]
N       -1.7636037244981297        1.1860053051360266        0.0108255549613568        0.4998089421672595 
O       -1.8136920463667408        1.1311025418785599        0.0082553530629117       -0.6942965890272905 
N       -2.1055540405717159        1.4863369304894127       -0.0249820639627273        0.1207407780997203 
O       -2.7142762312793161       -0.3226952368669284        0.2065162680839357       -0.8677346807810324 
N       -2.6410158930992433       -0.2974103507810444        0.2030525864231350        0.8746215761009597 
N       -3.2543010853613525       -0.5775223152255137        0.0863064764160345        0.1137020402830342 
N       -1.8002432611678711        0.2293708242928131        0.1510735764830342        0.9997379504755459 
O       -1.8471269887753254       -0.2751149201794778       -0.2442897073158508       -0.8204932918175326 
N       -1.9157306735733266       -0.4041556202552699       -0.1338618132474663        0.6720694580825828 
O       -1.7856938045808377        0.0674478670896332        0.2818618552295579       -0.9050378441281102 
O       -1.1232188411188095       -0.3364308434043035        0.3307987667453413       -0.5699544529824345 
O       -0.3364272079676025       -0.3361065782597352        0.0623518649116948       -0.2365128670970741 
O       -1.0762147253750536       -0.3032362058241054       -0.4185313084812466       -0.3705826045063005 
N       -0.8567835058448698       -0.3085461806635308        0.0249496648870642        0.9999999907045415 
N       -0.8047229121062780       -1.8337818688394849        0.0139094861184773        0.1272748034212361 
O       -0.8370332463808239       -1.3488030075281470        0.2499207836522802       -0.5182141915772080 
N       -0.8513929088353441       -1.2415230906879886        0.0331198412279386        0.9999998870413414 
O       -0.8169968292325835       -1.3384519925623133       -0.2378478509474425       -0.4329402906901093 
N        1.6978188849799811       -1.1654877753989288        0.0273561229891782        0.4844664243256026 
O        1.3793869645617878       -0.6402773326408870       -0.0156026459106898       -0.8591906742807199 
N        1.1017833710774585       -0.5763520261555418        0.0252332118083551        0.9988142167569625 
O        1.4548131624269560       -0.9948417595209677        0.0350986278257947       -0.9989077555068347 
O        0.5368795791354700        0.3274395820131901       -0.1690251307241246       -0.9501991572984190 
N        0.2121391244914014        0.4588851545729090       -0.0339327820305171        0.7171111576652400 
O        0.5727703460786756        0.3947926545240942        0.4336847688171439       -0.3298866363874070 
N        0.9770759885183545       -0.1256662547980841       -0.0338338137483444        0.9922214324485987 
O        1.7090602192285522        1.3497426690029926       -0.2526152107833126       -0.4598577580550772 
O        1.9475148320392817        1.5713013316860773        0.0007424645770352       -0.6785620079045281 
N        2.0539142165149387        1.6419052989831289       -0.0000775551624408        0.5384023631462680 
N        1.7564961166781474        1.3370004276133018       -0.1466715115522645        0.6320009571838748 
O        0.8514645311715922        1.0998422130602465        0.2937030186316623       -0.6394000753770342 
N        0.8776807577112907        1.1043435134939956       -0.0480125178438725        0.9999877102963053 
O        0.7815881472183256        0.9629087632605763       -0.4328774497484891       -0.5266388967754250 
O        0.2788751514334554        1.9282569683537603       -0.2003419275049889       -0.8468283070213762 
N        0.1579228308148660        2.0532675764987061       -0.0149475152548703        0.9905255557726561 
N        0.3571030955624365        1.8070375486454062       -0.1100918826441120        0.6121420953026373 
O        0.2194463553976016        2.0029660360133148        0.1136225305154316       -0.6683892580604530 

        RMSE         5.472423649e-02 kcal/mol
         MAE         3.222259277e-02 kcal/mol
     max. AE         8.427694684e-01 kcal/mol

Coordinates in bohr
s                   x[bohr]                   y[bohr]                   z[bohr]                      q[e]
+       -3.3327277917758704        2.2412250477330224        0.0204573325514936        0.4998089421672595 
-       -3.4273809953363461        2.1374738691594342        0.0156003552280529       -0.6942965890272905 
+       -3.9789201908701104        2.8087695253617948       -0.0472092555192333        0.1207407780997203 
-       -5.1292383344877877       -0.6098055755048675        0.3902591588668980       -0.8677346807810324 
+       -4.9907963694952793       -0.5620240691495819        0.3837137496162457        0.8746215761009597 
+       -6.1497373357365346       -1.0913589280780946        0.1630955914678734        0.1137020402830342 
+       -3.4019664764309434        0.4334480076927331        0.2854876636707395        0.9997379504755459 
-       -3.4905638749331929       -0.5198918145147737       -0.4616406086622508       -0.8204932918175326 
+       -3.6202060410096983       -0.7637433790351361       -0.2529621473748568        0.6720694580825828 
-       -3.3744719901984186        0.1274579873149185        0.5326416730223064       -0.9050378441281102 
-       -2.1225758349473884       -0.6357621081477293        0.6251190265155009       -0.5699544529824345 
-       -0.6357552381685154       -0.6351493358768414        0.1178279395613061       -0.2365128670970741 
-       -2.0337509358552506       -0.5730333388302706       -0.7909094906797752       -0.3705826045063005 
+       -1.6190860575988706       -0.5830677362831449        0.0471480301439461        0.9999999907045415 
+       -1.5207058006291070       -3.4653452549694510        0.0262851174061575        0.1272748034212361 
-       -1.5817634790080697       -2.5488680968277806        0.4722817999589919       -0.5182141915772080 
+       -1.6088993063359003       -2.3461384499200868        0.0625874247067413        0.9999998870413414 
-       -1.5439001408046094       -2.5293075148384574       -0.4494672652680413       -0.4329402906901093 
+        3.2084124708825446       -2.2024525385669556        0.0516955765599880        0.4844664243256026 
-        2.6066633952684777       -1.2099487154029713       -0.0294847254683540       -0.8591906742807199 
+        2.0820686701323909       -1.0891474024083942        0.0476838561300970        0.9988142167569625 
-        2.7491982415955718       -1.8799783275113240        0.0663267891666034       -0.9989077555068347 
-        1.0145552934409281        0.6187710878266465       -0.3194111822558905       -0.9501991572984190 
+        0.4008848167502520        0.8671672023791542       -0.0641236600685672        0.7171111576652400 
-        1.0823790084842895        0.7460499393625621        0.8195453784937397       -0.3298866363874070 
+        1.8464058883401697       -0.2374747875819690       -0.0639366371336984        0.9922214324485987 
-        3.2296555123586086        2.5506437995372826       -0.4773735289328928       -0.4598577580550772 
-        3.6802693912885944        2.9693289624089689        0.0014030546068383       -0.6785620079045281 
+        3.8813350733032870        3.1027511143084716       -0.0001465580060145        0.5384023631462680 
+        3.3192963605616730        2.5265644548301696       -0.2771689671675593        0.6320009571838748 
-        1.6090346529260724        2.0784004133792862        0.5550182272385222       -0.6394000753770342 
+        1.6585761375411658        2.0869066377914383       -0.0907305027476871        0.9999877102963053 
-        1.4769874341801927        1.8196337145841959       -0.8180197666686103       -0.5266388967754250 
-        0.5269976212385612        3.6438773057971483       -0.3785913470123947       -0.8468283070213762 
+        0.2984308775841332        3.8801131008593432       -0.0282467080421234        0.9905255557726561 
+        0.6748270002938456        3.4148058180512608       -0.2080434917664797        0.6121420953026373 
-        0.4146934808983996        3.7850569725374843        0.2147154488055076       -0.6683892580604530 

total molecule built from fragment files: /home/boittier/pydcm/models/fbutadiene-18/3-fragfit/frag1/fit2/10charges.xyz /home/boittier/pydcm/models/fbutadiene-18/3-fragfit/frag2/fit1/8charges.xyz /home/boittier/pydcm/models/fbutadiene-18/3-fragfit/frag3/fit2/8charges.xyz /home/boittier/pydcm/models/fbutadiene-18/3-fragfit/frag4/fit1/11charges.xyz 