38
s                      x[A]                      y[A]                      z[A]                      q[e]
N       -2.0274813631279485        0.7951513417388060       -0.0270249985910172        0.9006535918626607 
O       -2.0555176838967264        0.8834121613585946        0.1280792174945715       -0.5024643143464121 
O       -2.0494429215568823        1.0335741947349490       -0.0921496565045090       -0.8575948141790735 
N       -2.0819663000873687        1.2732214146349980       -0.0344540510228308        0.4968703426182340 
O       -2.6298921951964487       -0.3143226017559619        0.1771516782726312       -0.9451801864521224 
N       -2.5907142189777805       -0.3649185955571077        0.1451813797004661        0.8718315088982223 
N       -3.3100692004751711       -0.5381782363473850        0.0954291017110545        0.0864550385511383 
N       -1.9482872070695934        0.1170537979495820        0.1961029834235773        0.9983640628517407 
O       -1.8582725024150473       -0.2066579043962124       -0.2207470888018455       -0.9999902720428994 
N       -1.8827230191067457       -0.4024680425069113       -0.2147521406815392        0.4714706275627588 
O       -1.7966140248862426        0.0401636535886604        0.4635556197661038       -0.5272972458691106 
O       -1.1232188411188095       -0.3364308434043035        0.3307987667453413       -0.5699544529824345 
O       -0.3364272079676025       -0.3361065782597352        0.0623518649116948       -0.2365128670970741 
O       -1.0762147253750536       -0.3032362058241054       -0.4185313084812466       -0.3705826045063005 
N       -0.8567835058448698       -0.3085461806635308        0.0249496648870642        0.9999999907045415 
N       -0.8047229121062780       -1.8337818688394849        0.0139094861184773        0.1272748034212361 
O       -0.8370332463808239       -1.3488030075281470        0.2499207836522802       -0.5182141915772080 
N       -0.8513929088353441       -1.2415230906879886        0.0331198412279386        0.9999998870413414 
O       -0.8169968292325835       -1.3384519925623133       -0.2378478509474425       -0.4329402906901093 
N        1.6978188849799811       -1.1654877753989288        0.0273561229891782        0.4844664243256026 
O        1.3793869645617878       -0.6402773326408870       -0.0156026459106898       -0.8591906742807199 
N        1.1017833710774585       -0.5763520261555418        0.0252332118083551        0.9988142167569625 
O        1.4548131624269560       -0.9948417595209677        0.0350986278257947       -0.9989077555068347 
O        0.5368795791354700        0.3274395820131901       -0.1690251307241246       -0.9501991572984190 
N        0.2121391244914014        0.4588851545729090       -0.0339327820305171        0.7171111576652400 
O        0.5727703460786756        0.3947926545240942        0.4336847688171439       -0.3298866363874070 
N        0.9770759885183545       -0.1256662547980841       -0.0338338137483444        0.9922214324485987 
O        1.7090602192285522        1.3497426690029926       -0.2526152107833126       -0.4598577580550772 
O        1.9475148320392817        1.5713013316860773        0.0007424645770352       -0.6785620079045281 
N        2.0539142165149387        1.6419052989831289       -0.0000775551624408        0.5384023631462680 
N        1.7564961166781474        1.3370004276133018       -0.1466715115522645        0.6320009571838748 
O        0.8514645311715922        1.0998422130602465        0.2937030186316623       -0.6394000753770342 
N        0.8776807577112907        1.1043435134939956       -0.0480125178438725        0.9999877102963053 
O        0.7815881472183256        0.9629087632605763       -0.4328774497484891       -0.5266388967754250 
O        0.2788751514334554        1.9282569683537603       -0.2003419275049889       -0.8468283070213762 
N        0.1579228308148660        2.0532675764987061       -0.0149475152548703        0.9905255557726561 
N        0.3571030955624365        1.8070375486454062       -0.1100918826441120        0.6121420953026373 
O        0.2194463553976016        2.0029660360133148        0.1136225305154316       -0.6683892580604530 

        RMSE         5.665212873e-02 kcal/mol
         MAE         3.351289842e-02 kcal/mol
     max. AE         8.427694684e-01 kcal/mol

Coordinates in bohr
s                   x[bohr]                   y[bohr]                   z[bohr]                      q[e]
+       -3.8313842233050379        1.5026181553539815       -0.0510698421793236        0.9006535918626607 
-       -3.8843651872865235        1.6694069199646329        0.2420346258990435       -0.5024643143464121 
-       -3.8728855510183515        1.9531720169369504       -0.1741376007371337       -0.8575948141790735 
+       -3.9343458246644869        2.4060395964778123       -0.0651087156303938        0.4968703426182340 
-       -4.9697756284790326       -0.5939835893426092        0.3347681303558971       -0.9451801864521224 
+       -4.8957399886378630       -0.6895961537476789        0.2743530262807753        0.8718315088982223 
+       -6.2551237922023537       -1.0170093997245666        0.1803348535721324        0.0864550385511383 
+       -3.6817289684563201        0.2211996040496585        0.3705809042175290        0.9983640628517407 
-       -3.5116258417144710       -0.3905268126871367       -0.4171515106166395       -0.9999902720428994 
+       -3.5578306185414714       -0.7605543195062798       -0.4058227013533879        0.4714706275627588 
-       -3.3951082143107798        0.0758982999836192        0.8759931018335863       -0.5272972458691106 
-       -2.1225758349473884       -0.6357621081477293        0.6251190265155009       -0.5699544529824345 
-       -0.6357552381685154       -0.6351493358768414        0.1178279395613061       -0.2365128670970741 
-       -2.0337509358552506       -0.5730333388302706       -0.7909094906797752       -0.3705826045063005 
+       -1.6190860575988706       -0.5830677362831449        0.0471480301439461        0.9999999907045415 
+       -1.5207058006291070       -3.4653452549694510        0.0262851174061575        0.1272748034212361 
-       -1.5817634790080697       -2.5488680968277806        0.4722817999589919       -0.5182141915772080 
+       -1.6088993063359003       -2.3461384499200868        0.0625874247067413        0.9999998870413414 
-       -1.5439001408046094       -2.5293075148384574       -0.4494672652680413       -0.4329402906901093 
+        3.2084124708825446       -2.2024525385669556        0.0516955765599880        0.4844664243256026 
-        2.6066633952684777       -1.2099487154029713       -0.0294847254683540       -0.8591906742807199 
+        2.0820686701323909       -1.0891474024083942        0.0476838561300970        0.9988142167569625 
-        2.7491982415955718       -1.8799783275113240        0.0663267891666034       -0.9989077555068347 
-        1.0145552934409281        0.6187710878266465       -0.3194111822558905       -0.9501991572984190 
+        0.4008848167502520        0.8671672023791542       -0.0641236600685672        0.7171111576652400 
-        1.0823790084842895        0.7460499393625621        0.8195453784937397       -0.3298866363874070 
+        1.8464058883401697       -0.2374747875819690       -0.0639366371336984        0.9922214324485987 
-        3.2296555123586086        2.5506437995372826       -0.4773735289328928       -0.4598577580550772 
-        3.6802693912885944        2.9693289624089689        0.0014030546068383       -0.6785620079045281 
+        3.8813350733032870        3.1027511143084716       -0.0001465580060145        0.5384023631462680 
+        3.3192963605616730        2.5265644548301696       -0.2771689671675593        0.6320009571838748 
-        1.6090346529260724        2.0784004133792862        0.5550182272385222       -0.6394000753770342 
+        1.6585761375411658        2.0869066377914383       -0.0907305027476871        0.9999877102963053 
-        1.4769874341801927        1.8196337145841959       -0.8180197666686103       -0.5266388967754250 
-        0.5269976212385612        3.6438773057971483       -0.3785913470123947       -0.8468283070213762 
+        0.2984308775841332        3.8801131008593432       -0.0282467080421234        0.9905255557726561 
+        0.6748270002938456        3.4148058180512608       -0.2080434917664797        0.6121420953026373 
-        0.4146934808983996        3.7850569725374843        0.2147154488055076       -0.6683892580604530 

total molecule built from fragment files: /home/boittier/pydcm/models/fbutadiene-18/3-fragfit/frag1/fit1/11charges.xyz /home/boittier/pydcm/models/fbutadiene-18/3-fragfit/frag2/fit1/8charges.xyz /home/boittier/pydcm/models/fbutadiene-18/3-fragfit/frag3/fit2/8charges.xyz /home/boittier/pydcm/models/fbutadiene-18/3-fragfit/frag4/fit1/11charges.xyz 