25
s                      x[A]                      y[A]                      z[A]                      q[e]
N       -2.1022939731893979        1.5525587889565833        0.0014490888413341        0.0676167714753537
O       -1.8285210143112001       -0.2923472500376474        0.3545875820233387       -0.3178992125418713
N       -1.9269056258811443       -0.3912335976237720        0.0032651325331216        0.5821135686982306
N       -3.3197255904256706       -0.6022658289930221       -0.0152866814871811        0.0605068256188218
O       -1.8320177539511013       -0.3145011147347131       -0.3126947110669240       -0.3956355628820404
O       -1.2335252557152623       -0.3289345215427749        0.3492194782778922       -0.5586686623582261
O       -0.3741074701270786       -0.6427682684808208        0.0657982749540160       -0.0897461529877156
O       -1.2095250382221241       -0.3243924274069764       -0.3734562557502198       -0.4247281118370068
N       -1.0932935545546165       -0.3607660297078948        0.0311763373978777        0.9986821282888331
N       -0.8308435040732061       -1.5691511048577063       -0.1332744047653556        0.5723434122932706
O       -0.8238925934133444       -1.5430317991265206       -0.3166017981253115       -0.3745837532425025
O       -0.8625546313072370       -1.4622893052599495        0.3443013459517570       -0.1282397984529047
N        1.6885897905633216       -1.1614083595841986        0.0273551562178514        0.4822663180813066
O        1.3686952245637261       -0.6386648139922549       -0.0154511711522042       -0.8627171967973646
N        1.1015843820549875       -0.5792044294183076        0.0251402511252682        0.9958912646484944
O        1.4487062405778532       -0.9865017966325004        0.0353393373404373       -0.9988648375248018
O        0.5394464466062793        0.3268275909742823       -0.1698308317935380       -0.9504799133613784
N        0.2129460926247136        0.4598062703232652       -0.0337135445943110        0.7187319881338461
O        0.5719784417354690        0.3913864853953403        0.4343340675975885       -0.3278033889734640
N        0.9856338023567727       -0.1254968181054701       -0.0339859626761008        0.9971591444217266
N        2.2796603197382481        1.7057617775344456        0.0136715614276217        0.0648651544938187
N        1.0488894040313068        1.1207453629468060        0.0206342444243004        0.9993312115358322
O        0.9370136362481986        1.0847082090974285       -0.3310929739171004       -0.6454151651422460
O        0.9950326257015754        1.1412466104866663        0.3815925836956685       -0.5516547905122533
N       -0.1988981245935708        2.2781032106503165       -0.0109172202459418        0.0869287589242416

        RMSE         4.764513835E-01 kcal/mol
         MAE         2.810498279E-01 kcal/mol
     max. AE         4.249050394E+00 kcal/mol

Coordinates in bohr
s                   x[bohr]                   y[bohr]                   z[bohr]                      q[e]
+       -3.9727598445285444        2.9339109048004222        0.0027383810415784        0.0676167714753537
-       -3.4554039316925222       -0.5524562361018944        0.6700734175124237       -0.3178992125418713
+       -3.6413239025192663       -0.7393243505864977        0.0061702062509222        0.5821135686982306
+       -6.2733721775783033       -1.1381174715186304       -0.0288876413778787        0.0605068256188218
-       -3.4620118119439676       -0.5943209729997974       -0.5909073647956533       -0.3956355628820404
-       -2.3310249021371794       -0.6215961589243525        0.6599291716204854       -0.5586686623582261
-       -0.7069606600280745       -1.2146559895634985        0.1243407191906615       -0.0897461529877156
-       -2.2856710641237261       -0.6130128449716452       -0.7057300432068507       -0.4247281118370068
+       -2.0660253928365120       -0.6817489915167038        0.0589147392768573        0.9986821282888331
+       -1.5700666758140649       -2.9652658376406236       -0.2518521245399337        0.5723434122932706
-       -1.5569313583444011       -2.9159075032215815       -0.5982906892843264       -0.3745837532425025
-       -1.6299920214159305       -2.7633263031273039        0.6506352484753291       -0.1282397984529047
+        3.1909722424088711       -2.1947437194313797        0.0516937533708539        0.4822663180813066
-        2.5864591236474421       -1.2069015844118285       -0.0291984817952407       -0.8627171967973646
+        2.0816927861656276       -1.0945377422526705        0.0475081893519899        0.9958912646484944
-        2.7376580309337628       -1.8642182179075213        0.0667816690285917       -0.9988648375248018
-        1.0194060434372774        0.6176146371845463       -0.3209337597484826       -0.9504799133613784
+        0.4024097945470839        0.8689079216791987       -0.0637093660016570        0.7187319881338461
-        1.0808826045461739        0.7396132666026933        0.8207724347155294       -0.3278033889734640
+        1.8625779464479308       -0.2371546158357359       -0.0642241615678623        0.9971591444217266
+        4.3079336633789129        3.2234225948142257        0.0258355068055783        0.0648651544938187
+        1.9821137095138519        2.1179017923462951        0.0389930707676829        0.9993312115358322
-        1.7706991483284591        2.0498014412299832       -0.6256750427666720       -0.6454151651422460
-        1.8803391484711673        2.1566435354268472        0.7211054746906576       -0.5516547905122533
+       -0.3758629823490369        4.3049911536552612       -0.0206305563161334        0.0869287589242416
