15
s                      x[A]                      y[A]                      z[A]                      q[e]
N        1.8192001423754403        0.8374749822270374       -0.8261196957547368        0.2129498766051693
O        1.8846546837980538        0.0597165981336762       -0.1321836675043062       -0.4248368927951062
N        2.8635186884969679       -0.2768263859024697        0.0888537635680205        0.2001410299639393
N        0.5020999953589184       -0.3006290060927626        0.1660240561986675        0.4858462620055906
N        1.3511375970046557       -0.7194839541903124        0.4110226802128174        0.5074171376619938
O        1.1093018897292122       -0.4530399350877884        0.2519996961879371       -0.9990410401988910
N        0.9520944746982205       -1.5850103099290682        1.2092480914788801        0.0642990757074213
O       -1.1934224625446945       -0.8011112907892043       -0.1806694536929300       -0.6562459982811589
O       -0.3160750621897950        0.3627098927278519       -0.0553966291937909       -0.9860289184175163
N       -0.0359847327863323        0.3857620129936524        0.0000876340367528        0.7891336715777139
N       -0.8896585264354722       -0.2442013041994200       -0.0963175786503407        0.9958919368675958
N       -2.1823641881400726        1.4462921079765665       -0.1361901396016490        0.1369719093504712
O       -0.9404336821630983        0.8677954843929380        0.4765733960688223       -0.2641112094500177
O       -0.7453410811365244        0.9995965277836094       -0.3334741262522281       -0.1992565397441633
N       -0.1736638766256618        2.1592156229619230        0.4062493754500309        0.1368696991469585

        RMSE         5.258679972E-01 kcal/mol
         MAE         3.008849625E-01 kcal/mol
     max. AE         4.886265890E+00 kcal/mol

Coordinates in bohr
s                   x[bohr]                   y[bohr]                   z[bohr]                      q[e]
+        3.4377900364834701        1.5825983533317629       -1.5611399718229986        0.2129498766051693
-        3.5614811934396444        0.1128480156166740       -0.2497909298417183       -0.4248368927951062
+        5.4112660763894569       -0.5231260536559676        0.1679092783597413        0.2001410299639393
+        0.9488314788220024       -0.5681064868839140        0.3137399964531007        0.4858462620055906
+        2.5532800161480087       -1.3596276250811365        0.7767202969538594        0.5074171376619938
-        2.0962767620410312       -0.8561214012111124        0.4762104094937801       -0.9990410401988910
+        1.7991978027412745       -2.9952353917929693        2.2851477106276574        0.0642990757074213
-       -2.2552416061789256       -1.5138809356036025       -0.3414157867157230       -0.6562459982811589
-       -0.5972953026257635        0.6854223602498279       -0.1046844574498064       -0.9860289184175163
+       -0.0680012896639510        0.7289845541633071        0.0001656043287312        0.7891336715777139
+       -1.6812109601414256       -0.4614735844165185       -0.1820138447163880        0.9958919368675958
+       -4.1240706215918586        2.7330959814867919       -0.2573620648349849        0.1369719093504712
-       -1.7771620984441103        1.6398957984116658        0.9005931972494146       -0.2641112094500177
-       -1.4084905134006731        1.8889636734696185       -0.6301747685430577       -0.1992565397441633
+       -0.3281771647077981        4.0803261732078457        0.7677000582388493        0.1368696991469585
