12
s                      x[A]                      y[A]                      z[A]                      q[e]
N        0.0463976702474502        0.1870626637572422        0.1292409823637962        0.5040677066450798
O       -0.2602492324287173        0.4636769940569651        0.1295420843598682       -0.2387920346940187
N       -0.9805776169296321        0.2210333682794741        0.0077729300872424        0.5564324764567851
N        0.9939436833577233       -0.3935804624904001        0.0540726892343046        0.3517326346775730
N        0.2601594645537927       -0.7451201784787446       -0.0572088504292931        0.9814229229741416
O        0.4609144718145625       -0.6307298768408969        0.2893468951590595       -0.9845478283853190
O        0.4551081148895068       -0.7349132336483728       -0.3804262313054604       -0.7349866967673684
O        2.1441171750207748        0.1629869396864025       -0.9076183732813045       -0.3112267448353964
N        2.0639515021616819        0.3958168045608431       -0.9255660507284508        0.3270664972216329
O        0.1251547995842774        1.3706953783498013        0.0053893368556387       -0.2572212701365101
O       -0.6814948584669169        1.5708238860352712        0.0458069706245461       -0.9702581008985049
N       -0.6388449948037280        1.7228799097114014        0.0667203343563760        0.5466403099336243

        RMSE         1.406409502E-01 kcal/mol
         MAE         9.105173587E-02 kcal/mol
     max. AE         1.855003407E+00 kcal/mol

Coordinates in bohr
s                   x[bohr]                   y[bohr]                   z[bohr]                      q[e]
+        0.0876788896269841        0.3534972027997937        0.2442300608527000        0.5040677066450798
-       -0.4917997736508937        0.8762225294432011        0.2447990611611049       -0.2387920346940187
+       -1.8530231407511040        0.4176925306356638        0.0146887090572191        0.5564324764567851
+        1.8782813456748728       -0.7437592824378838        0.1021825735198276        0.3517326346775730
+        0.4916301369524219       -1.4080730678770834       -0.1081090592636444        0.9814229229741416
-        0.8710021189895746       -1.1919067263730412        0.5467863871021819       -0.9845478283853190
-        0.8600296946145637       -1.3887847375700231       -0.7189013881073912       -0.7349866967673684
-        4.0517942416795929        0.3080006780338141       -1.7151501519352164       -0.3112267448353964
+        3.9003030753128591        0.7479853564738603       -1.7490663468983789        0.3270664972216329
-        0.2365082945008476        2.5902388665119216        0.0101843706549932       -0.2572212701365101
-       -1.2878386384101179        2.9684269359340423        0.0865626291172840       -0.9702581008985049
+       -1.2072420767985754        3.2557711764080595        0.1260831589325252        0.5466403099336243
