4
s                      x[A]                      y[A]                      z[A]                      q[e]
N       -0.8203111441310877       -0.0813254625945551       -0.0777727268324009        0.6761403146892200
O        0.4170318809053373       -0.5888537918281073       -0.1195732176589083       -0.4806674330311941
N        1.8739138620067486        0.8249130814945020       -0.8635671413789712        0.0724975549137052
O       -0.5140302046849128        1.5058026753204514       -0.0162626413719887       -0.4976405643800120

        RMSE         1.017906087E+00 kcal/mol
         MAE         6.693353513E-01 kcal/mol
     max. AE         9.300001870E+00 kcal/mol

Coordinates in bohr
s                   x[bohr]                   y[bohr]                   z[bohr]                      q[e]
+       -1.5501634000687186       -0.1536828513298742       -0.1469691537432831        0.6761403146892200
-        0.7880760404956335       -1.1127723944924797       -0.2259606333150944       -0.4806674330311941
+        3.5411839818917281        1.5588598013320829       -1.6319053881507757        0.0724975549137052
-       -0.9713763070675147        2.8455546553373487       -0.0307319382695984       -0.4976405643800120
