6
s                      x[A]                      y[A]                      z[A]                      q[e]
N       -0.9371632218690926        0.2342319258599836       -0.0515936391474531        0.8359526029193414
O        0.5821549803557876       -0.4535780502105721       -0.1083651039769769       -0.4725843527883125
O        2.0117015822212005        0.1270070834480784       -0.8382630167038603       -0.5467925847460622
N        1.8957169174094104        0.2416598658130706       -0.7467523295381853        0.7012379957958407
O        0.0419339242448764        1.6477080433741176       -0.0416088698613254       -0.1859116548201069
O       -0.8441516494920950        1.1672177066175653       -0.0221069602143034       -0.5615721341689814

        RMSE         7.489972104E-01 kcal/mol
         MAE         4.706008288E-01 kcal/mol
     max. AE         7.979420822E+00 kcal/mol

Coordinates in bohr
s                   x[bohr]                   y[bohr]                   z[bohr]                      q[e]
+       -1.7709818241842554        0.4426341897139121       -0.0974978478043859        0.8359526029193414
-        1.1001134754437205       -0.8571382914171407       -0.2047803680732473       -0.4725843527883125
-        3.8015650365482521        0.2400086037100362       -1.5840875226703766       -0.5467925847460622
+        3.5823857853009429        0.4566709619015925       -1.4111573863748021        0.7012379957958407
-        0.0792436321885123        3.1137169366910702       -0.0786293684277214       -0.1859116548201069
-       -1.5952154258935312        2.2057217942921836       -0.0417761002714259       -0.5615721341689814
