7
s                      x[A]                      y[A]                      z[A]                      q[e]
N       -0.7513096507219991        0.1508411679335658        0.0285668809257555        0.7454996008963692
O        0.4101978060991971       -0.8131062387515077       -0.4481283625346307       -0.5867075111133404
O        0.2863867868852830       -0.7913626121397612        0.3759332059275469       -0.7148191371296946
N        0.2419799108165389       -0.7579730624969067       -0.0015877729890476        0.9935153212988214
O        2.2235120288386350        0.1434762843900932       -0.9965848146668953       -0.3785424500934668
N        2.1502922284361512        0.2846059871693203       -0.9666222314850592        0.4249765875449033
O       -0.4729710936814580        1.3046355643037004        0.0230387045255779       -0.7135925392118729

        RMSE         4.881555437E-01 kcal/mol
         MAE         3.162857841E-01 kcal/mol
     max. AE         4.535936867E+00 kcal/mol

Coordinates in bohr
s                   x[bohr]                   y[bohr]                   z[bohr]                      q[e]
+       -1.4197694752779575        0.2850484958386310        0.0539835812082430        0.7454996008963692
-        0.7751615107911372       -1.5365481021414744       -0.8468398742403286       -0.5867075111133404
-        0.5411925931630426       -1.4954586028710570        0.7104108006684030       -0.7148191371296946
+        0.4572757593059688       -1.4323614985936837       -0.0030004560986995        0.9935153212988214
-        4.2018287711661086        0.2711308829955763       -1.8832723605105799       -0.3785424500934668
+        4.0634634014447268        0.5378273694155801       -1.8266512842856608        0.4249765875449033
-       -0.8937858323162130        2.4654039100661191        0.0435368418386881       -0.7135925392118729
