4
s                      x[A]                      y[A]                      z[A]                      q[e]
N        1.1057606645548290       -0.5103370539171576        0.0266636786729963        0.3058601770430823
N        0.2046666653393527       -0.7355099162568847       -0.0349720449543559        0.9999999943442968
O        0.4438556949313134       -0.6640299938487180        0.2852054764799440       -0.9614237465121948
O        0.4365518536323844       -0.6989871787355543       -0.3552538288200037       -0.7540045999428822

        RMSE         1.552046211E-01 kcal/mol
         MAE         1.111587267E-01 kcal/mol
     max. AE         1.024339385E+00 kcal/mol

Coordinates in bohr
s                   x[bohr]                   y[bohr]                   z[bohr]                      q[e]
+        2.0895848163128701       -0.9643972635764329        0.0503870501891738        0.3058601770430823
+        0.3867639445021089       -1.3899123042839343       -0.0660875870109320        0.9999999943442968
-        0.8387657026449428       -1.2548348274635233        0.5389602400277984       -0.9614237465121948
-        0.8249634429261588       -1.3208943330166374       -0.6713324414900841       -0.7540045999428822
