4
s                      x[A]                      y[A]                      z[A]                      q[e]
O        2.2533667909983057        0.3251841517466626        0.7367649325145976       -0.9999999993260706
N        2.2583761728322242        0.5496667085557215        0.9990050194291819        0.2697559020402349
N        1.8012464062506532        0.3990425092980394        0.6573421235177741        0.2294081536016464
N        2.3369327337382240        0.2748754360668088        0.6380315255826545        0.5440577453896593

        RMSE         1.112819717E-01 kcal/mol
         MAE         6.915955576E-02 kcal/mol
     max. AE         1.011893529E+00 kcal/mol

Coordinates in bohr
s                   x[bohr]                   y[bohr]                   z[bohr]                      q[e]
-        4.2582460951885679        0.6145089871405112        1.3922839412940089       -0.9999999993260706
+        4.2677124549125178        1.0387195394521609        1.8878458846788302        0.2697559020402349
+        3.4038623922788842        0.7540810549887533        1.2421965841754643        0.2294081536016464
+        4.4161628403827047        0.5194392927820615        1.2057048427592569        0.5440577453896593
