31
s                      x[A]                      y[A]                      z[A]                      q[e]
N        1.5732800174440280        0.8928309482235440       -0.7165758033243601        0.6437975875011447
N        1.9101063141655719        1.1552755390994185       -1.0084571855285640        0.2035167350029793
O        1.6785216131056482        0.8803090545865765       -0.7183716057208529       -0.9858049550349326
N        3.3389030423174795       -0.3513617000485378        0.0440435739187354        0.0618683516466762
O        1.6500666701937268        0.1483304557678980       -0.0549476701786888       -0.9375805338864290
N        1.9809369419287393       -0.3952515363887404       -0.0060148578327644        0.5766890214466163
N        1.6828685962331076        0.3515812165606122       -0.3050868985090380        0.9375676703682564
O        1.8980940922732847       -0.4320811413630495       -0.1796391947972813       -0.4927338350744488
O        1.3016085382075235       -0.3050126804316181        0.3680320447277013       -0.9964160572235182
O        0.9620626436316887       -0.4881517523143463       -0.2015575343375384       -0.5581340098331735
N        0.8012166756517792       -0.3999256406075832        0.0686569737587321        0.9995741533929202
N        1.4206999290924032       -0.5177788999516462        0.4409475262694861        0.6563955176203053
N        0.9490148410903723       -1.4466664141726178        1.0114351891259798        0.4901117194541199
N        0.5787859968650652       -1.3371440629504372        0.8739896505455210        0.1164247837806258
O        0.8871100167071083       -1.3432752600784101        0.9109805775365064       -0.6483299771600690
N       -1.5435708343887957       -1.2897905212653620       -0.2648744339450719        0.4178004409459165
O       -1.3727479405392626       -0.7906286280125141       -0.1763092373708574       -0.5092341723270009
N       -1.0008370253691119       -0.6570399779720947       -0.1005999250802246        0.7664274368638901
O       -1.2850118015907526       -1.0542979117193894       -0.1967833217099417       -0.9985451084553144
N       -0.2280748048963255        0.4677806549568452        0.0100111940794089        0.9725561100654965
O       -0.6729535696101896        0.2456285718056582        0.2352658787866211       -0.4846167322924005
O       -0.4344142290644668        0.4453707468139816       -0.1285294204173553       -0.9629474420083793
N       -0.9993723560526909       -0.1015391464882171       -0.0427743195544221        0.9216827350723363
O       -2.3940081863827647        1.4756167241099591        0.0173601585535713       -0.8388337116461088
N       -2.3890406501346426        1.4820798355803118       -0.0005934540228011        0.9262487196528358
N       -0.5441816335646440        0.9255594774717368        0.2114714744079728        0.5964992268190374
O       -0.7897617141612981        0.8444238735895386        0.3298846831412476       -0.8736123266891015
N       -1.0163988750906847        0.8689793764117643        0.0587610793894340        0.4416560481787070
O       -0.7159650405157197        0.9064861886706400       -0.1702918133592761       -0.5403656696076452
O       -0.1515808799200757        2.2988648248135481        0.0801313648243219       -0.8920803171872620
N       -0.1582465530571909        2.2960034020983282        0.1144260308432178        0.9904185906139200

        RMSE         4.635923872E-01 kcal/mol
         MAE         2.721985185E-01 kcal/mol
     max. AE         4.369669946E+00 kcal/mol

Coordinates in bohr
s                   x[bohr]                   y[bohr]                   z[bohr]                      q[e]
+        2.9730683516247272        1.6872059684753167       -1.3541320164129738        0.6437975875011447
+        3.6095778042806392        2.1831543683385477       -1.9057078898989996        0.2035167350029793
-        3.1719461444313604        1.6635430189293350       -1.3575255911177859       -0.9858049550349326
+        6.3096123094379655       -0.6639773840669990        0.0832302922927673        0.0618683516466762
-        3.1181740954122912        0.2803039374656637       -0.1038360478697083       -0.9375805338864290
+        3.7434282920472750       -0.7469171544411481       -0.0113664339874896        0.5766890214466163
+        3.1801607520142445        0.6643922101548353       -0.5765306826474300        0.9375676703682564
-        3.5868779947459877       -0.8165150211513916       -0.3394688795646304       -0.4927338350744488
-        2.4596836597697309       -0.5763904308075483        0.6954797699276012       -0.9964160572235182
-        1.8180349119978263       -0.9224731195364391       -0.3808885384205095       -0.5581340098331735
+        1.5140800841316382       -0.7557499312966082        0.1297428770067486        0.9995741533929202
+        2.6847337724419984       -0.9784603144494407        0.8332700603474499        0.6563955176203053
+        1.7933781386556857       -2.7338033176843908        1.9113355010987434        0.4901117194541199
+        1.0937470193250662       -2.5268360692582679        1.6516010760156286        0.1164247837806258
-        1.6763949747267530       -2.5384223526513305        1.7215037971553968       -0.6483299771600690
+       -2.9169261322392459       -2.4373508444030252       -0.5005401377918562        0.4178004409459165
-       -2.5941176469054739       -1.4940715738901267       -0.3331761720192549       -0.5092341723270009
+       -1.8913078741655098       -1.2416256118441031       -0.1901063066432006        0.7664274368638901
-       -2.4283203729876761       -1.9923343077917610       -0.3718665840896495       -0.9985451084553144
+       -0.4309989173712833        0.8839773246557242        0.0189184149988878        0.9725561100654965
-       -1.2716979417124785        0.4641707293000464        0.4445880775718725       -0.4846167322924005
-       -0.8209239179337443        0.8416287357690448       -0.2428854036526290       -0.9629474420083793
+       -1.8885400502931127       -0.1918811778754734       -0.0808317491606732        0.9216827350723363
-       -4.5240198143674242        2.7885114747130859        0.0328059451607738       -0.8388337116461088
+       -4.5146325313401894        2.8007249853103575       -0.0011214655711454        0.9262487196528358
+       -1.0283542499414262        1.7490539252434372        0.3996231699778327        0.5964992268190374
-       -1.4924333441369628        1.5957298548824497        0.6233917041203932       -0.8736123266891015
+       -1.9207155081448146        1.6421330300893628        0.1110423468823150        0.4416560481787070
-       -1.3529778419770280        1.7130106330976023       -0.3218048886566124       -0.5403656696076452
-       -0.2864463489048529        4.3442249183461952        0.1514263335771135       -0.8920803171872620
+       -0.2990426455758219        4.3388176130852658        0.2162338599168718        0.9904185906139200
