12
s                      x[A]                      y[A]                      z[A]                      q[e]
N       -1.5241481464660971        1.1257826208175410       -0.2132037999276368        0.3684954411497249
N       -2.5376806585632949        0.9663347659208776       -0.4311699378094770        0.2525904384323756
O       -1.2216447298626589        0.8186205200675566       -0.1903534926822823       -0.7332252275792390
O       -2.3702667389700185        1.0068932779958157       -0.4380346522094044       -0.2165604176930361
N       -0.7821909496276326        0.9551262713544147        0.1407828541131765        0.0918170291020280
N       -1.3815231390057279        0.5494183857758153       -0.1681630728295049        0.6191175777034517
N       -1.0678253353033735        1.5971858342009186        0.0343752633614834        0.2352695503070759
O       -1.2121919516010387        0.7683631634829390       -0.0005861647627241       -0.7914519430611442
O       -0.8817950299838089        2.0400745922334269       -0.0261589501756405       -0.9909050494146409
N       -0.8680088269511328        2.1494364040224938        0.0221581827923505        0.8200364937122524
O       -0.9774566942348525        1.8028557172935065        0.2157536946463695       -0.3388199930825428
N       -0.8822237931364814        1.7080556187922540        0.0861070115280120        0.5524948991758087

        RMSE         5.888401587E-02 kcal/mol
         MAE         3.700740731E-02 kcal/mol
     max. AE         5.835483909E-01 kcal/mol

Coordinates in bohr
s                   x[bohr]                   y[bohr]                   z[bohr]                      q[e]
+       -2.8802225714451080        2.1274208301452910       -0.4028967907701391        0.3684954411497249
+       -4.7955214385560847        1.8261080530988574       -0.8147930959905958        0.2525904384323756
-       -2.3085739620493375        1.5469685836075360       -0.3597159681938543       -0.7332252275792390
-       -4.4791549809353741        1.9027525329765649       -0.8277655261359451       -0.2165604176930361
+       -1.4781266726080053        1.8049270680895604        0.2660410374341876        0.0918170291020280
+       -2.6107003687036308        1.0382502774074256       -0.3177821520631829        0.6191175777034517
+       -2.0178974335485504        3.0182437981006309        0.0649598332436884        0.2352695503070759
-       -2.2907108000101939        1.4519959438731340       -0.0011076908659426       -0.7914519430611442
-       -1.6663511054592726        3.8551822548262322       -0.0494332515614574       -0.9909050494146409
+       -1.6402989574175586        4.0618461276914344        0.0418728969153747        0.8200364937122524
-       -1.8471254515992448        3.4069035494005515        0.4077153934372951       -0.3388199930825428
+       -1.6671613503905114        3.2277573265667594        0.1627186692695826        0.5524948991758087
