4
s                      x[A]                      y[A]                      z[A]                      q[e]
O       -1.4125288946209031        0.8889960966101506       -0.1499668214536490       -0.9999999781080873
O       -1.7575099983788693        0.8270696514486410        0.1429078007998894       -0.3086837836662142
N       -1.8119569151559278        0.8806203877539670       -0.1482827633791863        0.9999999965898161
N       -0.8106258069442164        2.1005920130795013        0.1514546223007548        0.1775425639365995

        RMSE         2.814597959E-01 kcal/mol
         MAE         1.663699978E-01 kcal/mol
     max. AE         2.613338662E+00 kcal/mol

Coordinates in bohr
s                   x[bohr]                   y[bohr]                   z[bohr]                      q[e]
-       -2.6692927551291881        1.6799591491942329       -0.2833962204528300       -0.9999999781080873
-       -3.3212125596898945        1.5629351279157968        0.2700566047032741       -0.3086837836662142
+       -3.4241023207741303        1.6641313533494744       -0.2802138119127296        0.9999999965898161
+       -1.5318607653528193        3.9695436060443852        0.2862077565830841        0.1775425639365995
