9
s                      x[A]                      y[A]                      z[A]                      q[e]
N       -2.0284008540291967        0.7613829237116903       -0.1902544089094542        0.5839939467039167
N       -2.4539440487907482        0.9807645153115430       -0.3113181063995838        0.3082425560874360
O       -2.0851989188958857        0.8872339593495098       -0.1838461597128534       -0.9990961483569168
O       -1.0532674947663569        0.8454601448604037       -0.2292294300081978       -0.5810706033864079
O       -1.2994161094270491        0.7773588078615621        0.3720282143224917       -0.4840857892137477
N       -1.4339410608890142        0.9602220910717376        0.0393847413758055        0.9366909869061639
O       -0.8081093779202426        1.8878630306978885        0.2895523640785383       -0.8051946849975373
N       -0.8551604913707077        2.3020844125669537        0.2250481010664225        0.1939729434748200
N       -0.7416720965350739        1.8039995495984573        0.2887149884896004        0.7154055915343871

        RMSE         5.635873817E-02 kcal/mol
         MAE         3.276759180E-02 kcal/mol
     max. AE         7.957188619E-01 kcal/mol

Coordinates in bohr
s                   x[bohr]                   y[bohr]                   z[bohr]                      q[e]
+       -3.8331220867599436        1.4388052024154456       -0.3595287269997322        0.5839939467039167
+       -4.6372821794116366        1.8533763275062070       -0.5883059589913534        0.3082425560874360
-       -3.9404548738139744        1.6766291923761574       -0.3474188910744714       -0.9990961483569168
-       -1.9903871019555008        1.5976881237760647       -0.4331808426102980       -0.5810706033864079
-       -2.4555405698250627        1.4689952480707460        0.7030314360126366       -0.4840857892137477
+       -2.7097558851286845        1.8145567717400086        0.0744263747222595        0.9366909869061639
-       -1.5271054036833558        3.5675440903957938        0.5471746670872906       -0.8051946849975373
+       -1.6160191220025799        4.3503090574370100        0.4252792760698924        0.1939729434748200
+       -1.4015571373454097        3.4090650791903601        0.5455922565600539        0.7154055915343871
