3
s                      x[A]                      y[A]                      z[A]                      q[e]
O        2.8179720369533166        0.0366991437464748       -0.0997639381734217       -0.9999999999364654
N        3.1622919093128914        0.0343640859053466        0.0259176196603678        0.3500934398677726
N        2.6337580487774228        0.0461488196368688       -0.2004201565957496        0.6504135383420712

        RMSE         1.977080437E-01 kcal/mol
         MAE         1.442337483E-01 kcal/mol
     max. AE         1.074945157E+00 kcal/mol

Coordinates in bohr
s                   x[bohr]                   y[bohr]                   z[bohr]                      q[e]
-        5.3251953790402951        0.0693513307196456       -0.1885265203448744       -0.9999999999364654
+        5.9758656373524879        0.0649387109128106        0.0489772029818766        0.3500934398677726
+        4.9770813929095290        0.0872086301268322       -0.3787392059873371        0.6504135383420712
