1
s                      x[A]                      y[A]                      z[A]                      q[e]
N       -0.5402934414160180       -0.5141592902219131        0.0205450162953245        0.5006561536277573

        RMSE         2.468260347E+00 kcal/mol
         MAE         1.910521073E+00 kcal/mol
     max. AE         1.002316192E+01 kcal/mol

Coordinates in bohr
s                   x[bohr]                   y[bohr]                   z[bohr]                      q[e]
+       -1.0210066316573678       -0.9716202433792028        0.0388244540412316        0.5006561536277573
