4
s                      x[A]                      y[A]                      z[A]                      q[e]
O       -0.8853648885768496        1.7605534196455923       -0.1045388323624928       -0.5208533781920648
N       -0.9607472091018827        1.7280249825733724        0.0325201319059217        0.9999999972230116
O       -1.1234632068581436        1.7757282340208123        0.1865836323443567       -0.5807339432320180
N       -0.8908635665630849        2.3310027208169397        0.1549108192831893        0.1276221556518382

        RMSE         1.078643204E-01 kcal/mol
         MAE         7.050541002E-02 kcal/mol
     max. AE         8.498791758E-01 kcal/mol

Coordinates in bohr
s                   x[bohr]                   y[bohr]                   z[bohr]                      q[e]
-       -1.6730971605067317        3.3269637923683950       -0.1975497626402589       -0.5208533781920648
+       -1.8155491010005227        3.2654939550127100        0.0614541428659549        0.9999999972230116
-       -2.1230377729904664        3.3556400355422209        0.3525919646239490       -0.5807339432320180
+       -1.6834881559528003        4.4049567400410510        0.2927390223155192        0.1276221556518382
