4
s                      x[A]                      y[A]                      z[A]                      q[e]
N        2.5810322936374677        0.0282071424871292       -0.0755478293070121        0.9999999974195812
O        2.6563109330720445        0.1613813679465199       -0.0013476697827459       -0.4867146721571505
O        2.7671883991609825       -0.0578081420237193       -0.0256074554648413       -0.9999999941341707
N        3.0345920323393423       -0.0080217593746166        0.0620299382431509        0.4872216471451184

        RMSE         5.589108713E-02 kcal/mol
         MAE         3.677065311E-02 kcal/mol
     max. AE         4.240279143E-01 kcal/mol

Coordinates in bohr
s                   x[bohr]                   y[bohr]                   z[bohr]                      q[e]
+        4.8774441559370629        0.0533037740824395       -0.1427647067630894        0.9999999974195812
-        5.0197001675655031        0.3049665871706612       -0.0025467267969451       -0.4867146721571505
-        5.2292282119583335       -0.1092415562463990       -0.0483910775984083       -0.9999999941341707
+        5.7345478436178219       -0.0151589282623492        0.1172195948586180        0.4872216471451184
