34
s                      x[A]                      y[A]                      z[A]                      q[e]
N       -2.1283858468076522        1.5788178370927768       -0.0114241907593362        0.0624372665338668
O       -3.1891572807316977       -0.5938459367688533        0.2534157300736241       -0.5286765235414870
O       -1.6335350898351213       -0.1000157622730615        0.3488072005756346       -0.6192660554940588
N       -3.2106516889901653       -0.5976408507459000        0.2200040578879173        0.5800819328348850
N       -1.9338856413441177       -0.3360424634844155       -0.0517262409579218        0.6767253625056514
O       -1.8452688626989928       -0.2715042190594587       -0.2600729167347001       -0.5891216184076705
N       -1.5361672458962949       -0.0041820128530686        0.2791817175667106        0.4223211778917512
O       -1.1265446254106721       -0.3370391464790736        0.3301824006210828       -0.5671070814167922
O       -0.3382656338109725       -0.3357105614415846        0.0623800529431427       -0.2362427983485528
O       -1.0754871690441199       -0.3023699897311243       -0.4189056015960685       -0.3694372873918076
N       -0.8583488593927165       -0.3066163975020851        0.0248505600329924        0.9954556136836097
N       -0.8038996551995962       -1.8348811731977650        0.0139032840218257        0.1268878645890520
O       -0.8367388072250368       -1.3515787566416539        0.2506268079734345       -0.5201550813220531
N       -0.8513835903053961       -1.2515858656319356        0.0331012596225408        0.9949006124708812
O       -0.8182362527234112       -1.3410969645283364       -0.2370872133658511       -0.4339580147268049
N        1.6868506537267944       -1.1657866356921949        0.0270474948889377        0.4861789124408031
O        1.3737559598869709       -0.6435584532975392       -0.0155488118444291       -0.8607230832649975
N        1.1093408824208888       -0.5755318341354210        0.0253515131891997        0.9946562229087133
O        1.4479101322716863       -0.9902497893969806        0.0349771590249562       -0.9955879767485828
O        0.5354222887635554        0.3258535914307422       -0.1686530679510246       -0.9502810461261343
N        0.2114988809017500        0.4622762712415288       -0.0337215235079516        0.7241210041383599
O        0.5706540626986568        0.3942482798293997        0.4323345619086824       -0.3294633662399102
N        0.9732677831322397       -0.1256132400022087       -0.0337682497190466        0.9895165306722942
O        1.7157213484225367        1.3525830062436441       -0.2527227881187123       -0.4591661428349077
O        1.9469377695819772        1.5676093843826076        0.0007452437109058       -0.6773252070004097
N        2.0446428307981623        1.6466296167794410       -0.0000778248769015        0.5402306735559482
N        1.7652122912133603        1.3384005832999237       -0.1462486152949351        0.6350677024155299
O        0.8525716208877340        1.1011020565573020        0.2928951604597657       -0.6406384121766167
N        0.8759494913238013        1.0965531685286751       -0.0478401696603013        0.9937296859476223
O        0.7821102284806667        0.9627348673736105       -0.4297230263590882       -0.5273850598426830
O        0.2796270592286378        1.9326924094257683       -0.2010566548432414       -0.8442638066861539
N        0.1569627734621512        2.0513006801524245       -0.0149843341704624        0.9867765692956456
N        0.3559180517505526        1.8142144468719152       -0.1099531213348175        0.6130636232332829
O        0.2196713527424192        1.9934996928550499        0.1139669909041778       -0.6733521935482742

        RMSE         4.665073794E-01 kcal/mol
         MAE         2.716299759E-01 kcal/mol
     max. AE         4.552210105E+00 kcal/mol

Coordinates in bohr
s                   x[bohr]                   y[bohr]                   z[bohr]                      q[e]
+       -4.0220663397671030        2.9835333140930418       -0.0215885917401315        0.0624372665338668
-       -6.0266338315927346       -1.1222061812090796        0.4788863257220965       -0.5286765235414870
-       -3.0869339361135291       -0.1890023989249838        0.6591500796755855       -0.6192660554940588
+       -6.0672523764300168       -1.1293775292953698        0.4157474158975337        0.5800819328348850
+       -3.6545142200957468       -0.6350282225097081       -0.0977484289099116        0.6767253625056514
-       -3.4870527783361407       -0.5130686159286842       -0.4914665852775811       -0.5891216184076705
+       -2.9029353776428284       -0.0079028589454442        0.5275769854360016        0.4223211778917512
-       -2.1288608101326498       -0.6369116804035131        0.6239543086200432       -0.5671070814167922
-       -0.6392294055571455       -0.6344010185482778        0.1178812157540992       -0.2362427983485528
-       -2.0323762009373532       -0.5713964691493207       -0.7916168594367191       -0.3694372873918076
+       -1.6220442643513444       -0.5794210168534526        0.0469607525266039        0.9954556136836097
+       -1.5191501806772170       -3.4674228901025268        0.0262733990457044        0.1268878645890520
-       -1.5812071841975734       -2.5541136870395413        0.4736160267675015       -0.5201550813220531
+       -1.6088818133861911       -2.3651545085384198        0.0625523150942777        0.9949006124708812
-       -1.5462424235681440       -2.5343059706413875       -0.4480299011094431       -0.4339580147268049
+        3.1876857500931397       -2.2030174621771281        0.0511123577198126        0.4861789124408031
-        2.5960225274018049       -1.2161492224555914       -0.0293829959622458       -0.8607230832649975
+        2.0963504475491943       -1.0875975429983664        0.0479074167935194        0.9946562229087133
-        2.7361536042689054       -1.8713008977525865        0.0660972512037527       -0.9955879767485828
-        1.0118014872289158        0.6157740448009347       -0.3187081086456656       -0.9502810461261343
+        0.3996749607451306        0.8735755469443461       -0.0637244439632164        0.7241210041383599
-        1.0783798908803013        0.7450212743104251        0.8169939165772020       -0.3294633662399102
+        1.8392095568514171       -0.2373746213355782       -0.0638127437050663        0.9895165306722942
-        3.2422434561198008        2.5560114437489032       -0.4775768552064738       -0.4591661428349077
-        3.6791791678196555        2.9623524081806760        0.0014083065103318       -0.6773252070004097
+        3.8638149745893369        3.1116790057807213       -0.0001470677030913        0.5402306735559482
+        3.3357677836851587        2.5292105485898619       -0.2763698291348702        0.6350677024155299
-        1.6111268658154778        2.0807813230716765        0.5534916367409818       -0.6406384121766167
+        1.6553046383360825        2.0721851705221983       -0.0904048184534064        0.9937296859476223
-        1.4779741317477071        1.8193052307650890       -0.8120588296215719       -0.5273850598426830
-        0.5284185592093004        3.6522593385659117       -0.3799420133544305       -0.8442638066861539
+        0.2966166537357459        3.8763964864534488       -0.0283162877545133        0.9867765692956456
+        0.6725876409150706        3.4283684374368812       -0.2077812859620391        0.6130636232332829
-        0.4151186942920118        3.7671684506803440        0.2153664001514395       -0.6733521935482742
