19
s                      x[A]                      y[A]                      z[A]                      q[e]
N        0.0655597250632808        0.0271255863266506        0.0853547078757630        0.3494681112242183
N       -0.8661280435044596        0.1400701225300730        0.0018071537375746        0.5528260289316111
O        0.3741994118847308       -0.7258574068097495        0.4536344067249495       -0.3106282771106170
O        0.6281335102368759       -0.8483384819631605       -0.4114851301643151       -0.2832032645187156
N        2.0534428502535640        0.8892975893604939       -0.9452677126210058        0.0517868744237259
O       -0.4353168720127667        1.3511330660691221        0.0416857594203527       -0.6537700732425479
O       -2.0944211826762329       -0.7088127614171832        0.2660784714917201       -0.9712687420586484
N       -2.1751169430913002       -0.6349004480062624        0.2386439122489603        0.9653690498855997
O        0.4134019469274108       -1.3018804448800259        0.0020859895885974       -0.3648732180265247
N        0.5273895185386116       -1.5628203991372460       -0.0032099328632672        0.6047348869760968
N       -2.5235854863263008       -0.0607147879630224        1.0926553832559831        0.0412997905915776
N       -2.5008674368719346       -0.0013984050710902        0.6272627910516007        0.0090147769764995
O        1.7896568170716727       -0.0094456151123744        0.1902736373308455       -0.5592802809960029
N        2.2542589536942104       -0.3406911209933977       -0.0607107374717604        0.2044957680972984
N        1.5194355564167097       -0.1684690051535172        0.1644453029730691        0.3995113213507545
N       -2.3627739883487360       -0.1269426429426375       -0.7900644561736718        0.5704408920129815
O       -2.2265954590101225       -0.1843146348505264       -0.5612534475253532       -0.7893894318716940
N        1.9334649776486359        0.6480226451014759        1.0240238877206476        0.1007463159988059
N       -1.5552770972046503       -1.8366418229056765        0.0390592100105854        0.0827194713555815

        RMSE         7.376643979E-01 kcal/mol
         MAE         4.518051055E-01 kcal/mol
     max. AE         8.031381302E+00 kcal/mol

Coordinates in bohr
s                   x[bohr]                   y[bohr]                   z[bohr]                      q[e]
+        0.1238899252299142        0.0512599291498332        0.1612970214036503        0.3494681112242183
+       -1.6367447918020517        0.2646941699411581        0.0034150256306135        0.5528260289316111
-        0.7071344047695303       -1.3716717050054545        0.8572447897946994       -0.3106282771106170
-        1.1870003045701565       -1.6031273925970191       -0.7775942007089214       -0.2832032645187156
+        3.8804446012587470        1.6805288879211928       -1.7862970920916772        0.0517868744237259
-       -0.8226296658951069        2.5532714539207579        0.0787746686361902       -0.6537700732425479
-       -3.9578824266155594       -1.3394619933079575        0.5028154389997895       -0.9712687420586484
+       -4.1103753132855978       -1.1997879636623137        0.4509716356583256        0.9653690498855997
-        0.7812164594238588       -2.4601974889124447        0.0039419490230055       -0.3648732180265247
+        0.9966217514750398       -2.9533025376480846       -0.0060658939926816        0.6047348869760968
+       -4.7688854233370090       -0.1147343210153559        2.0648194238609672        0.0412997905915776
+       -4.7259545317636507       -0.0026426025968119        1.1853548837778045        0.0090147769764995
-        3.3819612428240413       -0.0178496256488731        0.3595650634499867       -0.5592802809960029
+        4.2599320383431776       -0.6438129120527376       -0.1147266666961972        0.2044957680972984
+        2.8713170669102079       -0.3183602803684909        0.3107565852370366        0.3995113213507545
+       -4.4649957343347966       -0.2398868288033668       -1.4930054436270190        0.5704408920129815
-       -4.2076556097171931       -0.3483041807812596       -1.0606153027919343       -0.7893894318716940
+        3.6537192809203631        1.2245853223365453        1.9351246937186015        0.1007463159988059
+       -2.9390477629138418       -3.4707500358533467        0.0738112095967472        0.0827194713555815
