2
s                      x[A]                      y[A]                      z[A]                      q[e]
O       -1.2356877215416620       -1.2376186764357702       -0.1888970441588168       -0.2445514601055630
N       -0.3721717678755883       -0.1833175212496468        0.0853340978725201        0.3687630364845343

        RMSE         7.522899105E-01 kcal/mol
         MAE         5.159376706E-01 kcal/mol
     max. AE         6.498692648E+00 kcal/mol

Coordinates in bohr
s                   x[bohr]                   y[bohr]                   z[bohr]                      q[e]
-       -2.3351113703047366       -2.3387603462152136       -0.3569636793686771       -0.2445514601055630
+       -0.7033027129123257       -0.3464199091596282        0.1612580741420766        0.3687630364845343
