5
s                      x[A]                      y[A]                      z[A]                      q[e]
O       -1.1807329532417878       -0.7954486822743981       -0.2537051096081298       -0.5992970438262573
N       -0.0519320777193257        0.4011362742673585       -0.0241730788918872        0.7832419870752755
O       -1.4110298138358504       -1.1101632072357626        0.1742167070184443       -0.0597333695487860
O       -0.3154169793314113        0.3700495979552814       -0.0874133824398177       -0.9999999969945461
N       -0.8858582994008919       -0.2550311485109640       -0.1322300608391516        0.9999999996732853

        RMSE         3.088232041E-01 kcal/mol
         MAE         1.981883815E-01 kcal/mol
     max. AE         2.612308714E+00 kcal/mol

Coordinates in bohr
s                   x[bohr]                   y[bohr]                   z[bohr]                      q[e]
-       -2.2312619089299828       -1.5031801563549334       -0.4794331737886247       -0.5992970438262573
+       -0.0981374040155161        0.7580376973518441       -0.0456804987147524        0.7832419870752755
-       -2.6664599030055021       -2.0979044162354734        0.3292218627439863       -0.0597333695487860
-       -0.5960517062555598        0.6992923929712609       -0.1651873525111602       -0.9999999969945461
+       -1.6740295718315081       -0.4819390241466840       -0.2498786005386229        0.9999999996732853
