6
s                      x[A]                      y[A]                      z[A]                      q[e]
O       -1.1881869072228779       -0.6584167275969516       -0.1910039750992070       -0.8077082743434943
N       -0.7898033642564406       -0.4216579396590473       -0.0683700580932468        0.7402884473196780
O       -0.9468783405238906       -1.1103182623557719       -0.0434593510257447       -0.1354695677780909
O       -0.5121276154060361        0.3128930372966136       -0.0596519061478867       -0.9997918846476836
N       -0.0654409113800887        0.4233736417485454        0.0326088859687218        0.5305072737830352
N       -1.0060422807380569       -0.0634553680187828       -0.1363900118691884        0.7963855820455270

        RMSE         2.570742665E-01 kcal/mol
         MAE         1.653649788E-01 kcal/mol
     max. AE         2.273568422E+00 kcal/mol

Coordinates in bohr
s                   x[bohr]                   y[bohr]                   z[bohr]                      q[e]
-       -2.2453478405060090       -1.2442272915784096       -0.3609452018112679       -0.8077082743434943
+       -1.4925120514098813       -0.7968180245804222       -0.1292006849778779        0.7402884473196780
-       -1.7893407377181498       -2.0981974279466411       -0.0821262710287922       -0.1354695677780909
-       -0.9677809344012055        0.5912821470532612       -0.1127257654810199       -0.9997918846476836
+       -0.1236653999087241        0.8000602316424492        0.0616218637371688        0.5305072737830352
+       -1.9011443812258848       -0.1199132667456350       -0.2577397686807086        0.7963855820455270
