10
s                      x[A]                      y[A]                      z[A]                      q[e]
N       -2.7573183641702683       -0.2372255887852752        0.4281142304106634        0.2242081675235545
N       -2.2105783301629400       -0.1477187233274362        0.2565997381107488        0.3970993295075730
O       -2.4087884764909493       -0.2536945083210754        0.2983690169270138       -0.4957298952622368
O       -1.3400623225626718       -1.1146536139701919        0.3135671266682349       -0.4031027186923324
O       -1.2932542645308600       -0.7902530474565576       -0.1295464123730944       -0.5934087955319827
O       -1.1170099282896582       -0.5569734947624794        0.4303454637916129       -0.2890502684656878
N       -1.2967365080668700       -1.0246339310834041        0.1306141595364214        0.9999986947969268
N       -1.6165741194603322       -2.0408902193554983        0.2192584619170938        0.2766355700755851
N       -1.8389958428414264       -1.6073468433278801        0.1983634728448505        0.5077920803664958
O       -1.7480431608084159       -1.7292359257531267        0.1764083767794850       -0.7235226065620577

        RMSE         4.982761600E-02 kcal/mol
         MAE         2.759643054E-02 kcal/mol
     max. AE         6.857922195E-01 kcal/mol

Coordinates in bohr
s                   x[bohr]                   y[bohr]                   z[bohr]                      q[e]
+       -5.2105765489771976       -0.4482913927546501        0.8090186458873029        0.2242081675235545
+       -4.1773876228798485       -0.2791479306911330        0.4849032288935188        0.3970993295075730
-       -4.5519505147267063       -0.4794131402595145        0.5638357263141470       -0.4957298952622368
-       -2.5323507806883763       -2.1063900551554564        0.5925559913497076       -0.4031027186923324
-       -2.4438963705437153       -1.4933618295013218       -0.2448072399207697       -0.5934087955319827
-       -2.1108428438847424       -1.0525273642402060        0.8132350658992766       -0.2890502684656878
+       -2.4504768571289199       -1.9362775085988644        0.2468249896306922        0.9999986947969268
+       -3.0548823472831739       -3.8567235667074429        0.4143384437124325        0.2766355700755851
+       -3.4751984888257819       -3.0374453225088658        0.3748526369714584        0.5077920803664958
-       -3.3033228294075432       -3.2677823059759366        0.3333635183498008       -0.7235226065620577
