11
s                      x[A]                      y[A]                      z[A]                      q[e]
O       -2.3608004565045477       -0.4898277180730944        0.1863262080572175       -0.4296055384119896
O       -2.3671829093525649       -0.4469001350318943        0.5172474945273672       -0.9996846951751041
N       -2.2333463600332992       -0.5540848368886799        0.4142140542528929        0.9035915441907718
N       -2.5522345571917597       -0.3259169140226846        0.4638117110607465        0.6190073489066129
O       -1.3961568094450520       -0.5646773333016536       -0.2081172338203615       -0.4687549629614877
O       -1.2644452064794396       -0.5421338276984007        0.3845690560966524       -0.5549213861731040
N       -1.5493246713630151       -0.5131455156632918        0.1030526623444399        0.7130912074059561
N       -1.5258746599784283       -1.9784998225561521        0.2841722301811712        0.4475758376904498
N       -1.2785651428478839       -1.5506600884057717        0.2105794737928940        0.5414636824418150
N       -1.5144021376343708       -1.7576628842116686        0.1584215271034380        0.1248449624555765
O       -1.4516815317904732       -1.7376709589402595        0.2433599281355432       -0.9956884426136586

        RMSE         5.419477268E-02 kcal/mol
         MAE         3.247450754E-02 kcal/mol
     max. AE         5.823615978E-01 kcal/mol

Coordinates in bohr
s                   x[bohr]                   y[bohr]                   z[bohr]                      q[e]
-       -4.4612662996494112       -0.9256402358161181        0.3521055032232148       -0.4296055384119896
-       -4.4733273875408122       -0.8445188606404018        0.9774561037359707       -0.9996846951751041
+       -4.2204129637510706       -1.0470685919885778        0.7827511198534980        0.9035915441907718
+       -4.8230243210215598       -0.6158937071572599        0.8764771076847903        0.6190073489066129
-       -2.6383539980441615       -1.0670855091939926       -0.3932845739083526       -0.4687549629614877
-       -2.3894551408941149       -1.0244844576961205        0.7267301923485011       -0.5549213861731040
+       -2.9277993082910534       -0.9697044871104518        0.1947413083302722        0.7130912074059561
+       -2.8834852091353165       -3.7388228038980378        0.5370076875029747        0.4475758376904498
+       -2.4161379535393661       -2.9303228807651323        0.3979375331115939        0.5414636824418150
+       -2.8618052839368522       -3.3215014720423479        0.2993732986022922        0.1248449624555765
-       -2.7432805164690959       -3.2837222085587654        0.4598836140872755       -0.9956884426136586
