8
s                      x[A]                      y[A]                      z[A]                      q[e]
N       -2.9126574577321627       -0.2090960574366655        0.4530390998434083        0.0910952322914798
N       -2.3517967311556287       -0.0603678640298007        0.1727964242761605        0.9008428545856860
O       -2.3945319221522197       -0.0750050375160455        0.1665686753615907       -0.8466497902449966
O       -1.2675373335653872       -0.6651391983904328       -0.2284599263420424       -0.3030181761921052
O       -1.1253883382358680       -0.6443116693222773        0.4206477634806916       -0.4038706603367796
N       -1.1576892372575605       -0.8846538537692750        0.1607129205911594        0.3822685574896381
N       -1.6344265871403751       -2.1557909615020256        0.0715619108591229        0.9892716364241185
O       -1.6435228600194804       -2.1545185740773927        0.0517645565425620       -0.9090200962612028

        RMSE         8.704079447E-02 kcal/mol
         MAE         5.396983112E-02 kcal/mol
     max. AE         9.826777425E-01 kcal/mol

Coordinates in bohr
s                   x[bohr]                   y[bohr]                   z[bohr]                      q[e]
+       -5.5041248923860477       -0.3951342824682974        0.8561198228279863        0.0910952322914798
+       -4.4442517246311120       -0.1140787297952002        0.3265379173403558        0.9008428545856860
-       -4.5250095315337999       -0.1417389789350157        0.3147691775137016       -0.8466497902449966
-       -2.3952984142316658       -1.2569309202644783       -0.4317266914287285       -0.3030181761921052
-       -2.1266757440498907       -1.2175725944556526        0.7949090682648683       -0.4038706603367796
+       -2.1877155968069579       -1.6717534994547480        0.3037034047397433        0.3822685574896381
+       -3.0886186218620426       -4.0738545009762293        0.1352324125381687        0.9892716364241185
-       -3.1058080863659812       -4.0714500372181961        0.0978208348712184       -0.9090200962612028
