4
s                      x[A]                      y[A]                      z[A]                      q[e]
N        0.7317640589856154       -0.0690405049089593       -0.0499134827565654        0.4409441108685707
N        1.1518418264422257       -0.8361306703180059       -0.5526596924716913        0.3949100195257531
N        0.5568655413995924       -1.0143909842961329       -0.1451745775209947        0.1179126483554793
O        0.9850527944131812       -0.4398576750159257       -0.1947829206026920       -0.9999999969707847

        RMSE         1.833736175E-01 kcal/mol
         MAE         1.217941822E-01 kcal/mol
     max. AE         1.488852067E+00 kcal/mol

Coordinates in bohr
s                   x[bohr]                   y[bohr]                   z[bohr]                      q[e]
+        1.3828336599361806       -0.1304676458412598       -0.0943228123776705        0.4409441108685707
+        2.1766655918229354       -1.5800579719965020       -1.0443754593512442        0.3949100195257531
+        1.0523233619500276       -1.9169211444532841       -0.2743401918937265        0.1179126483554793
-        1.8614800005578274       -0.8312105399607337       -0.3680863738558849       -0.9999999969707847
