4
s                      x[A]                      y[A]                      z[A]                      q[e]
O        0.4867031514777029       -1.5404035483137219       -0.3595380593765785       -0.8740477738881021
N        0.4431895943331327       -1.4149411087861865       -0.3338006274545871        0.9999999994975806
O        0.3753735651317082       -1.2880212295371605       -0.1694795148734713       -0.9999999722092255
N        0.4798770915618330       -1.5538197712011808       -0.1467608963953916        0.9999999864964748

        RMSE         9.912512217E-02 kcal/mol
         MAE         6.009897260E-02 kcal/mol
     max. AE         8.854794413E-01 kcal/mol

Coordinates in bohr
s                   x[bohr]                   y[bohr]                   z[bohr]                      q[e]
-        0.9197356606900740       -2.9109408289963801       -0.6794284639003283       -0.8740477738881021
+        0.8375069549423775       -2.6738511792575235       -0.6307917663951488        0.9999999994975806
-        0.7093532328356346       -2.4340073676006861       -0.3202698669863172       -0.9999999722092255
+        0.9068362769331141       -2.9362938158917764       -0.2773379001139812        0.9999999864964748
