2
s                      x[A]                      y[A]                      z[A]                      q[e]
N       -1.7600009506757788       -1.6764492020478474        0.0704028614465470        0.9703776729303177
O       -1.7779764065250643       -1.6177505538642847        0.0755265924056078       -0.9999995748765829

        RMSE         3.039357190E-01 kcal/mol
         MAE         2.328669108E-01 kcal/mol
     max. AE         1.362221225E+00 kcal/mol

Coordinates in bohr
s                   x[bohr]                   y[bohr]                   z[bohr]                      q[e]
+       -3.3259197773226337       -3.1680298551127466        0.1330421265825275        0.9703776729303177
-       -3.3598884658580421       -3.0571054861112104        0.1427245748356818       -0.9999995748765829
