10
s                      x[A]                      y[A]                      z[A]                      q[e]
N        0.0620133920967842        0.0321485302375985        0.0849569794086633        0.3020585497195656
N       -0.8687826673058757        0.1407172363566144        0.0017797299285310        0.6027522931918731
O        0.3612907500950798       -0.7114917161167308        0.4491262775573056       -0.3137555996753242
O        0.6660278569657160       -0.8565412428783182       -0.4637082202075349       -0.2936535764829500
N        1.9084979679721961        0.8342008229740019       -0.8245759944684757        0.0534451075287574
O       -0.4475113102527878        1.3622245374366657        0.0443808070181324       -0.6597109197722923
O       -2.1717702645892425       -0.7017561967555809        0.2784171624327514       -0.9620108769495485
N       -2.2316452923215762       -0.6363706674947015        0.2349829430683737        0.9999988668138688
O        0.4240839721662506       -1.2822230729727579        0.0022471605788249       -0.3238951195089597
N        0.5182782998992619       -1.5866516948105578       -0.0031707443477264        0.5677076160087083

        RMSE         6.521429877E-01 kcal/mol
         MAE         4.089856483E-01 kcal/mol
     max. AE         5.531755464E+00 kcal/mol

Coordinates in bohr
s                   x[bohr]                   y[bohr]                   z[bohr]                      q[e]
+        0.1171883271735531        0.0607519174850608        0.1605454235285338        0.3020585497195656
+       -1.6417613037528498        0.2659170378453183        0.0033632021422042        0.6027522931918731
-        0.6827405693409276       -1.3445244839926107        0.8487256603296641       -0.3137555996753242
-        1.2586102415908029       -1.6186283641992769       -0.8762815383157304       -0.2936535764829500
+        3.6065384704602361        1.5764110890523921       -1.5582227991724482        0.0534451075287574
-       -0.8456738144225568        2.5742312971337724        0.0838675704910669       -0.6597109197722923
-       -4.1040510074867518       -1.3261270187109451        0.5261321856250061       -0.9620108769495485
+       -4.2171984116550547       -1.2025662758397742        0.4440534065532752        0.9999988668138688
-        0.8014025615904942       -2.4230504396614401        0.0042465180539043       -0.3238951195089597
+        0.9794040435775025       -2.9983371596854518       -0.0059918384310464        0.5677076160087083
