5
s                      x[A]                      y[A]                      z[A]                      q[e]
N        0.0331204700873189        0.3676939458267597       -0.0840735531059820        0.9999935211360778
O        0.3061938753519816       -0.7362418586976464       -0.0451906139750462       -0.9999999992519257
O       -0.3473536982369695        1.2455567388747233       -0.0177208121618754       -0.8877179734881557
N       -1.5735733106816705       -0.0300458955969570       -0.1004712829803431        0.4133312108699615
N        0.4409961558482915       -1.6309258894850516       -0.0216731578692815        0.4473295816077409

        RMSE         1.176026939E+00 kcal/mol
         MAE         7.794635054E-01 kcal/mol
     max. AE         1.209847452E+01 kcal/mol

Coordinates in bohr
s                   x[bohr]                   y[bohr]                   z[bohr]                      q[e]
+        0.0625886176114510        0.6948408556015031       -0.1588759897644404        0.9999935211360778
-        0.5786225657078173       -1.3912954750365731       -0.0853978838541244       -0.9999999992519257
-       -0.6564033583327959        2.3537611101916185       -0.0334874817066267       -0.8877179734881557
+       -2.9736225955183206       -0.0567785138723480       -0.1898632083062207        0.4133312108699615
+        0.8333619569329885       -3.0820032620454487       -0.0409563326467532        0.4473295816077409
