6
s                      x[A]                      y[A]                      z[A]                      q[e]
N        0.0280476017956436        0.3861637615044726       -0.0718057372938921        0.9881762575715962
O        0.1842463544930021       -0.6238566805982415       -0.0383984923431048       -0.9999999995670006
O       -0.3518096712518518        1.2497701787851936        0.0079852235627636       -0.8682745526320615
O       -1.6505481078597226       -0.7925460717357836        0.1523290212969476       -0.5088713556558200
N       -1.5395769581381418       -0.4381684546418484        0.0390078351781394        0.9963496283515629
N        0.3561122083030163       -1.7087830861763122        0.0029528136078641        0.3655563628054216

        RMSE         1.065224051E+00 kcal/mol
         MAE         6.849615987E-01 kcal/mol
     max. AE         1.034655766E+01 kcal/mol

Coordinates in bohr
s                   x[bohr]                   y[bohr]                   z[bohr]                      q[e]
+        0.0530022858696656        0.7297437488200679       -0.1356931777220294        0.9881762575715962
-        0.3481751496057904       -1.1789182678678967       -0.0725626341589575       -0.9999999995670006
-       -0.6648239269533542        2.3617233576684811        0.0150898855841758       -0.8682745526320615
-       -3.1190838807475032       -1.4976950173880843        0.2878601312102638       -0.5088713556558200
+       -2.9093787999465395       -0.8280183760881843        0.0737141252336830        0.9963496283515629
+        0.6729545436246900       -3.2291320406878325        0.0055800090183883        0.3655563628054216
