8
s                      x[A]                      y[A]                      z[A]                      q[e]
N       -0.4616116933977871        0.2342993052090293       -0.0485546881713932        0.9441043273329091
O        0.3152881737399255       -0.7997456334733701       -0.0302645070543979       -0.9187115142224083
O        2.1276464828688688        0.1143273883565424       -0.9221797362599344       -0.4276716080017869
N        2.0619562666203017        0.2423762925039567       -0.8520514147636985        0.5010594401181871
O       -0.4106257765699911        1.3179914034121423       -0.0177701648059476       -0.7450171008910654
N       -2.1793871689286055       -0.1440369103411383       -0.2113059541626634        0.1498539131672048
O        0.1786223212239250       -1.7874517346286829        0.1418883285127112       -0.0502381799671099
N        0.4381344606124233       -1.6292395501545915       -0.0079080279183023        0.5195570633377683

        RMSE         7.023170859E-01 kcal/mol
         MAE         4.698757455E-01 kcal/mol
     max. AE         9.316063605E+00 kcal/mol

Coordinates in bohr
s                   x[bohr]                   y[bohr]                   z[bohr]                      q[e]
+       -0.8723196768306272        0.4427615182301201       -0.0917550627509400        0.9441043273329091
-        0.5958082989642240       -1.5113002172954482       -0.0571916296547985       -0.9187115142224083
-        4.0206691444157627        0.2160474526327213       -1.7426671399782077       -0.4276716080017869
+        3.8965326265838711        0.4580248121363353       -1.6101438187122650        0.5010594401181871
-       -0.7759702577707210        2.4906427881567530       -0.0335807446874904       -0.7450171008910654
+       -4.1184448706119587       -0.2721903125018759       -0.3993103820459794        0.1498539131672048
-        0.3375472670067714       -3.3777942409227348        0.2681300812880131       -0.0502381799671099
+        0.8279541366826701       -3.0788165425562912       -0.0149440069580657        0.5195570633377683
