9
s                      x[A]                      y[A]                      z[A]                      q[e]
N       -0.6480059252527133        0.1400162290214189        0.0349939029399916        0.9832568172261726
O        0.6857165685569012       -0.6692249847700104       -0.3495992041097413       -0.8436005818454072
O        0.4552280567157961       -0.6009680200213768        0.2527610828873295       -0.7224690126634918
N        0.7923738441423130       -0.1922270749954696       -0.1546078824383187        0.8646827380089988
O       -0.4184723032637989        1.2627441058903106        0.0308856360159268       -0.8022093806789948
O       -2.0819782053022524       -0.5369640000660767        0.2851206196187593       -0.8776217168202542
N       -2.1801182896355966       -0.4664354186943941        0.2263752837366753        0.8979485284152329
O        0.6119129866065196       -1.3476056075690026        0.0220546382894311       -0.4854322364117151
N        0.5803527456698822       -1.4581573632176350       -0.0073472267654334        0.9583811856431577

        RMSE         7.059921345E-01 kcal/mol
         MAE         3.913887003E-01 kcal/mol
     max. AE         6.651735757E+00 kcal/mol

Coordinates in bohr
s                   x[bohr]                   y[bohr]                   z[bohr]                      q[e]
+       -1.2245537264015249        0.2645923259698618        0.0661288926174377        0.9832568172261726
-        1.2958165142612701       -1.2646519375290057       -0.6606467494454418       -0.8436005818454072
-        0.8602563518172378       -1.1356649679990589        0.4776492218311981       -0.7224690126634918
+        1.4973695544051782       -0.3632565256392802       -0.2921665546454034        0.8646827380089988
-       -0.7907980442581120        2.3862405266688063        0.0583653932806780       -0.8022093806789948
-       -3.9343686071934680       -1.0147148993552042        0.5387998838002932       -0.8776217168202542
+       -4.1198264885128228       -0.8814351965456573        0.4277872878351239        0.8979485284152329
-        1.1563479572972661       -2.5466055234366136        0.0416772261630605       -0.4854322364117151
+        1.0967077454735588       -2.7555180643010644       -0.0138842463683025        0.9583811856431577
