4
s                      x[A]                      y[A]                      z[A]                      q[e]
O       -1.5165178437949471       -1.3231890920323210       -0.1563173864731855       -0.5164828010962443
N       -1.7805425099200245       -1.8279196508203854        0.0119214238093087        0.1070171532021203
N       -1.5058457177190334       -1.3007930997237853       -0.0457473633031433        0.9999999433748653
O       -1.6033467530937819       -1.2912120673180600        0.0705704577647718       -0.6201561974270063

        RMSE         3.345163841E-02 kcal/mol
         MAE         2.043436333E-02 kcal/mol
     max. AE         3.107841293E-01 kcal/mol

Coordinates in bohr
s                   x[bohr]                   y[bohr]                   z[bohr]                      q[e]
-       -2.8658033891422852       -2.5004649961342995       -0.2953970490816668       -0.5164828010962443
+       -3.3647376984841246       -3.4542675193930332        0.0225282260251056        0.1070171532021203
+       -2.8456359936824516       -2.4581427043633073       -0.0864499876047606        0.9999999433748653
-       -3.0298862474893018       -2.4400371771173499        0.1333588377236076       -0.6201561974270063
