5
s                      x[A]                      y[A]                      z[A]                      q[e]
N        1.2687997243882612       -0.4729646527467805        0.0356714512449442        0.5542214698277932
O        1.6077735881216810       -0.6978502096619257        0.0659541684614211       -0.9997269256385042
N        2.7140618818170350       -0.1903359874439754        1.1151612224728713        0.0713928911629721
N        2.6845106654254178       -0.1724622846414312       -1.1404880224264748        0.0651741912422566
N        1.6902847346529528       -1.4012351928316948        0.0847317341150200        0.2719310436532437

        RMSE         3.123857272E-01 kcal/mol
         MAE         2.133122654E-01 kcal/mol
     max. AE         2.460601198E+00 kcal/mol

Coordinates in bohr
s                   x[bohr]                   y[bohr]                   z[bohr]                      q[e]
+        2.3976839871501889       -0.8937736607136806        0.0674092733505663        0.5542214698277932
-        3.0382517532946145       -1.3187457728543639        0.1246353152243942       -0.9997269256385042
+        5.1288336441788873       -0.3596828880876935        2.1073492962044744        0.0713928911629721
+        5.0729899385245911       -0.3259064849430568       -2.1552100117510431        0.0651741912422566
+        3.1941752225362379       -2.6479507518049914        0.1601197716124996        0.2719310436532437
