8
s                      x[A]                      y[A]                      z[A]                      q[e]
N        1.6678738449281310       -0.2487528241397995       -0.1600463539172042        0.8725148901106401
O        1.7037832797399854       -0.9669507064158718       -0.2581120822343486       -0.2938442759326493
O        1.7900019658118640       -0.1737856952421213       -0.4316508140746786       -0.5576229746664576
O        2.0619492928464069       -0.1051170055976776        0.8270455043912693       -0.9920389086934052
N        2.3481342175725941       -0.1317004481954195        0.9723431987680932        0.3247140691218762
N        2.0584644051711001       -0.0170412466124102        0.9597615335866904        0.4357736280774051
N        2.5362666388727177       -0.1643369670749019       -1.2515161072256200        0.0752941040055123
N        1.6479292493871811       -1.7631795885650290       -0.1542545036615876        0.0982021382248398

        RMSE         2.063043874E-01 kcal/mol
         MAE         1.267908688E-01 kcal/mol
     max. AE         2.076174018E+00 kcal/mol

Coordinates in bohr
s                   x[bohr]                   y[bohr]                   z[bohr]                      q[e]
+        3.1518247787284874       -0.4700747105583958       -0.3024437762816107        0.8725148901106401
-        3.2196837758428738       -1.8272720119439754       -0.4877611450945679       -0.2938442759326493
-        3.3826134794155496       -0.3284073685298888       -0.8157018204320599       -0.5576229746664576
-        3.8965194480611491       -0.1986423517078281        1.5628894965906286       -0.9920389086934052
+        4.4373305770284075       -0.2488777776893895        1.8374623456232995        0.3247140691218762
+        3.8899339647768363       -0.0322032889338412        1.8136864442282397        0.4357736280774051
+        4.7928493286048894       -0.3105518600599451       -2.3650226842555346        0.0752941040055123
+        3.1141349554730646       -3.3319265323853200       -0.2914987655388324        0.0982021382248398
