9
s                      x[A]                      y[A]                      z[A]                      q[e]
N        1.6394401618034351       -0.1365826972009722       -0.1642762187842090        0.4947437201337178
O        1.7168651186380486       -0.9740059070987745       -0.1740877795934799       -0.0569917696923011
O        2.1458041348873218       -0.2220018944200118        0.5811083440845891       -0.9975897869449870
N        2.2823861757320127       -0.2849033572648041        0.5483792529381392        0.5687906298247596
N        2.3704388851074358       -0.0263988326029022        1.0516743738895953        0.1981147984719633
N        2.2171179999115749       -0.1881384458126765       -0.9279036375111686        0.7649768477505734
O        2.0995446170048355        0.0402104240629025       -0.8660668900013154       -0.0533118791999988
O        2.0727248987201308       -0.2253597775894354       -0.7760820615476557       -0.9994872301611528
N        1.6192644997362162       -2.0002268320925878       -0.0188370565337845        0.0437473400651870

        RMSE         1.797089353E-01 kcal/mol
         MAE         1.096213296E-01 kcal/mol
     max. AE         2.020776274E+00 kcal/mol

Coordinates in bohr
s                   x[bohr]                   y[bohr]                   z[bohr]                      q[e]
+        3.0980929048847603       -0.2581038911861730       -0.3104370624279458        0.4947437201337178
-        3.2444048685775742       -1.8406044089948046       -0.3289782252207432       -0.0569917696923011
-        4.0549821338120058       -0.4195227797866268        1.0981356195381851       -0.9975897869449870
+        4.3130847846645661       -0.5383893174539456        1.0362866009362481        0.5687906298247596
+        4.4794802899886488       -0.0498865636512921        1.9873765398136722        0.1981147984719633
+        4.1897458076557097       -0.3555301362552468       -1.7534837457122057        0.7649768477505734
-        3.9675643143183872        0.0759866888674050       -1.6366292284294968       -0.0533118791999988
-        3.9168823919983620       -0.4258682593381217       -1.4665825472057752       -0.9994872301611528
+        3.0599664291779285       -3.7798809014471120       -0.0355968778586187        0.0437473400651870
