2
s                      x[A]                      y[A]                      z[A]                      q[e]
N        2.2924563807672729       -0.1395148417014504       -1.0187291192649979        0.9642161169781343
O        2.2347031934873067       -0.1363090310538366       -0.9688573468987084       -0.9999986095527650

        RMSE         3.727209894E-01 kcal/mol
         MAE         2.510948897E-01 kcal/mol
     max. AE         1.879533404E+00 kcal/mol

Coordinates in bohr
s                   x[bohr]                   y[bohr]                   z[bohr]                      q[e]
+        4.3321147142084140       -0.2636448412523442       -1.9251190314397100        0.9642161169781343
-        4.2229770073770032       -0.2575867371182774       -1.8308750402762473       -0.9999986095527650
