3
s                      x[A]                      y[A]                      z[A]                      q[e]
N       -2.3408511097360210        0.2954296399216875       -0.1392878017975513        0.2047113436294138
N       -1.6494622537164727       -0.5599672077594119       -0.0056166689926490        0.2409040512758500
O       -2.3235065851154131       -0.1651925612901269       -0.2363766881969104       -0.2320516523998626

        RMSE         1.111322381E-01 kcal/mol
         MAE         7.568349542E-02 kcal/mol
     max. AE         8.889654265E-01 kcal/mol

Coordinates in bohr
s                   x[bohr]                   y[bohr]                   z[bohr]                      q[e]
+       -4.4235674978751085        0.5582811087946119       -0.2632157980144245        0.2047113436294138
+       -3.1170319138045670       -1.0581846619026321       -0.0106139661334578        0.2409040512758500
-       -4.3907910965658994       -0.3121686988012463       -0.4466872031349005       -0.2320516523998626
