1
s                      x[A]                      y[A]                      z[A]                      q[e]
N        1.5098649248750453       -1.3746805788165934       -0.1577809387694468        0.1217803859997371

        RMSE         7.486842719E-01 kcal/mol
         MAE         5.377623718E-01 kcal/mol
     max. AE         4.487587616E+00 kcal/mol

Coordinates in bohr
s                   x[bohr]                   y[bohr]                   z[bohr]                      q[e]
+        2.8532311944487940       -2.5977698039492059       -0.2981627620918855        0.1217803859997371
