2
s                      x[A]                      y[A]                      z[A]                      q[e]
N       -2.1272631485911786        0.6579241687031900       -0.5497808750654422        0.9999999991400460
O       -2.1425749077860998        0.7033862341033742       -0.5301020573716620       -0.9364710428261704

        RMSE         5.741878236E-01 kcal/mol
         MAE         4.334900973E-01 kcal/mol
     max. AE         2.701725371E+00 kcal/mol

Coordinates in bohr
s                   x[bohr]                   y[bohr]                   z[bohr]                      q[e]
+       -4.0199447476164281        1.2432964901685417       -1.0389352828882323        0.9999999991400460
-       -4.0488797789937898        1.3292073428725422       -1.0017477069741743       -0.9364710428261704
