17
s                      x[A]                      y[A]                      z[A]                      q[e]
O        1.6302932695045083        0.1150790642330443       -0.2032318576213420       -0.3285141529764026
N        1.7339130022127305        0.2953679580108968       -1.3822150887724507        0.1672311280902621
N        2.9881034609437109        0.0244609937662387        0.1683090473239685        0.1407357869018105
O        1.1492495002235483        0.0292067619608778        0.3865120693294183       -0.9999845340371674
N        1.4625015102051355       -0.0308166663806992        0.6547333653325691        0.4286546436042962
N        0.4591921012015682        0.0286512458210439        0.1930989051463130        0.5708411625540416
N        1.2138748324959125       -0.2761849920374540        1.9266520788608745        0.0677595011726592
N       -0.8746411576794165       -0.8357032644193484       -0.0234252848819320        0.2536872382602264
N       -1.1968767200757451       -1.6165347804613213       -0.1852973698847512        0.2603597064302626
O       -1.0342677212902340       -1.2233875470669007       -0.1175434525796001       -0.9755960697763293
N       -0.8702030604024867       -0.2465994316092066       -0.0287753255296078        0.9407002317515942
N       -0.2014678787945482        0.2881974174878861        0.1382196985476806        0.9769922215289196
O       -0.5926165093951087        0.2886425038372962        0.2105034105855318       -0.9834482238708138
O       -0.5059871578343397        0.2924904134692952       -0.2899753035790444       -0.3823871003272514
N       -2.2960744507937743        0.9728414880667199       -0.3234590438633766        0.2160218836236609
O       -1.1801417863794861        1.0229714448651850       -0.0349311954568179       -0.6359675302925420
N       -0.8877844988659783        1.9124405144965930        0.1267980144428624        0.2829141073627725

        RMSE         4.973111133E-01 kcal/mol
         MAE         2.935519601E-01 kcal/mol
     max. AE         4.687953467E+00 kcal/mol

Coordinates in bohr
s                   x[bohr]                   y[bohr]                   z[bohr]                      q[e]
-        3.0808077835407293        0.2174679141744233       -0.3840525508723757       -0.3285141529764026
+        3.2766206995524136        0.5581645468763226       -2.6120079642553113        0.1672311280902621
+        5.6466971757162856        0.0462245789747223        0.3180580038790213        0.1407357869018105
-        2.1717668052417913        0.0551927811174987        0.7304019552165690       -0.9999845340371674
+        2.7637273123561732       -0.0582350595591251        1.2372667456778805        0.4286546436042962
+        0.8677473102444784        0.0541430077549410        0.3649040458522908        0.5708411625540416
+        2.2938909840032711       -0.5219139949125391        3.6408447680910303        0.0677595011726592
+       -1.6528322460674731       -1.5792502919036342       -0.0442673728376791        0.2536872382602264
+       -2.2617692068794115       -3.0548080073489934       -0.3501612808498370        0.2603597064302626
-       -1.9544827336398907       -2.3118674092520908       -0.2221249332161836       -0.9755960697763293
+       -1.6444454576959358       -0.4660053884349687       -0.0543774844218536        0.9407002317515942
+       -0.3807191139986290        0.5446141891163352        0.2611973753984574        0.9769922215289196
-       -1.1198829001815613        0.5454552804189001        0.3977937944814553       -0.9834482238708138
-       -0.9561771513057054        0.5527267757788894       -0.5479739069108851       -0.3823871003272514
+       -4.3389518756612295        1.8384039759289506       -0.6112490057042324        0.2160218836236609
-       -2.2301447654657860        1.9331358649590822       -0.0660103926482226       -0.6359675302925420
+       -1.6776695612835248        3.6139888036282222        0.2396135205488561        0.2829141073627725
