11
s                      x[A]                      y[A]                      z[A]                      q[e]
N        1.7494060774112192        0.8739586700500778        0.7845541843829332        0.2032415977154307
N        2.7578605603181208       -0.4945763666593797        0.0969490967366852        0.2110606256528298
O        1.7530257960661015       -0.0459963576582102        0.2118202480138374       -0.4419513308586788
N        0.4414898809894299       -0.4047348118751952       -0.2067138198426960        0.5720425436405810
O        0.8782395530484370       -0.6296211324403556       -0.3348520525079623       -0.8979376251079855
N        1.0478208570694625       -1.2279931797065708       -0.6552818710565340        0.3928412785234485
O       -0.4832469132825589        1.4574193509452822       -0.1330483719328527       -0.2220047388029453
N        0.0022087789907083        0.1297810255759826       -0.1120678823784468        0.3218499773216202
O       -1.4596517545046417       -0.9205013159437767        0.1819646302269983       -0.6906451621642299
N       -2.4832469727726219       -0.2950822246673230        0.4117712721890969        0.2234853944782664
N       -1.4499925619772902       -1.7357209732912109        0.2302092557663039        0.3280174396016626

        RMSE         6.053116336E-01 kcal/mol
         MAE         3.455767053E-01 kcal/mol
     max. AE         7.355736834E+00 kcal/mol

Coordinates in bohr
s                   x[bohr]                   y[bohr]                   z[bohr]                      q[e]
+        3.3058983685186809        1.6515425313640100        1.4825925390656869        0.2032415977154307
+        5.2116011512029177       -0.9346138811102398        0.1832072409428522        0.2110606256528298
-        3.3127386454276189       -0.0869205187426221        0.4002822565727052       -0.4419513308586788
+        0.8342949622309930       -0.7648379478828156       -0.3906325058499254        0.5720425436405810
-        1.6596322278060376       -1.1898115031128831       -0.6327786717874729       -0.8979376251079855
+        1.9800944484037761       -2.3205707935755364       -1.2383032712744202        0.3928412785234485
-       -0.9132043170769051        2.7541234232290908       -0.2514249843911417       -0.2220047388029453
+        0.0041739873641039        0.2452505946196450       -0.2117776051552859        0.3218499773216202
-       -2.7583420545577777       -1.7394953852572652        0.3438633156492319       -0.6906451621642299
+       -4.6926566804124876       -0.5576245891120567        0.7781349307687428        0.2234853944782664
+       -2.7400888260880145       -3.2800372697334903        0.4350324449437876        0.3280174396016626
