15
s                      x[A]                      y[A]                      z[A]                      q[e]
O        1.6005537917882273        0.1128766777180095       -0.1933030240102890       -0.3081543422299981
N        1.6884610952237762        0.2794936605052747       -1.3143736300013822        0.1763355522124799
N        2.9390789960701040        0.0272376710223338        0.1612600219411651        0.1498620856236099
O        1.2032021686528900        0.0312853331817463        0.3898250683624304       -0.9864239220393801
N        1.4409661646454526       -0.0321004430201804        0.7123610936089472        0.4501583064827069
N        0.4454953541459973        0.0282009479582099        0.1923858771197680        0.5139554585280239
N        1.1945439180862487       -0.2805688958612945        1.9065560384586631        0.0608685352980817
O       -0.9294053517845622       -0.8931520554645077       -0.0796309244327124       -0.7112329375916320
N       -0.8795696771114606       -0.2201169759851592       -0.0072346253042269        0.9996876020199533
N       -0.2741672231741514        0.2801338101286713        0.0782618815935951        0.9663008334499149
O       -0.6648647968646618        0.3932570383124835        0.2976963336606946       -0.7166892993831787
O       -0.4714787118005681        0.4267776643216049       -0.3374853574693533       -0.4595952159756659
N       -2.2573782999797176        0.9437893787203556       -0.2919800487117176        0.2359748052734939
O       -1.2407779960179186        0.9879583191630362       -0.0342371786685952       -0.6357550688761490
N       -0.8968969110674878        1.9366871415181266        0.1258444298363613        0.2647076072077392

        RMSE         5.234623138E-01 kcal/mol
         MAE         3.079109459E-01 kcal/mol
     max. AE         4.993963998E+00 kcal/mol

Coordinates in bohr
s                   x[bohr]                   y[bohr]                   z[bohr]                      q[e]
-        3.0246083155428023        0.2133060068386060       -0.3652897746022449       -0.3081543422299981
+        3.1907290434635076        0.5281664721566585       -2.4838061872264530        0.1763355522124799
+        5.5540543636580413        0.0514717385275299        0.3047372764541223        0.1498620856236099
-        2.2737225723108820        0.0591207114571986        0.7366626160428686       -0.9864239220393801
+        2.7230314072312778       -0.0606610458140053        1.3461673693525369        0.4501583064827069
+        0.8418642094997785        0.0532920681193058        0.3635566181623450        0.5139554585280239
+        2.2573608500143401       -0.5301983724999448        3.6028687555247152        0.0608685352980817
-       -1.7563215744076104       -1.6878127732176393       -0.1504806382948548       -0.7112329375916320
+       -1.6621457979980334       -0.4159608001759286       -0.0136714604452958        0.9996876020199533
+       -0.5181009643764208        0.5293761796241929        0.1478935222749038        0.9663008334499149
-       -1.2564123765323634        0.7431480993192701        0.5625645391716252       -0.7166892993831787
-       -0.8909656392867356        0.8064929020304079       -0.6377548969693111       -0.4595952159756659
+       -4.2658267485132511        1.7835034458974683       -0.5517623261629819        0.2359748052734939
-       -2.3447305949682700        1.8669706465857929       -0.0646988909920118       -0.6357550688761490
+       -1.6948895246866580        3.6598082881650460        0.2378115068051166        0.2647076072077392
