26
s                      x[A]                      y[A]                      z[A]                      q[e]
N        1.6178101893186769       -0.1709824474200520       -0.1866669048927296        0.4430274979955926
O        1.8451669125266328       -0.0411857185949841       -0.2460224674545603       -0.2397694117010844
O        2.1289775496902843       -0.2810510187589039        0.8716755777822868       -0.8131298231863546
N        2.2517085673492314       -0.2368258233590130        0.9710129526741034        0.6882536752431530
N        2.2847384251119895       -0.2954212258093112       -1.0014484865186268        0.3475741677786745
O        2.0337380735130313       -0.4095002719546946       -0.7909465729872546       -0.5008653247699173
N        1.6988254413748358       -2.0067349910503935       -0.0762063359134165        0.0349490083854984
N        1.0407827398047849        0.2254576250668498        0.0511989934020699        0.4467179932355987
N       -0.0692617315150875        0.2858684179804912       -0.0041115666085595        0.4002291909132988
O        0.1045105269236689        1.5439607001949680        0.0221021864507744       -0.7616466859448209
O        0.6719140113892705        1.4017234893793482        0.0062471470088694       -0.5843812830331953
N        0.2562312685142879        1.6560721915232925        0.0280667761001025        0.6069756333905771
N       -1.0169392672880675       -0.4650704819327989        0.2560497873200300        0.3928054759361322
O       -0.5729243076539808       -0.7105444322134620        0.5083865878141212       -0.3905898912988163
O       -0.6147411444321979       -0.6685100181927915       -0.4033999607694489       -0.7184687902173786
N       -1.0302599576529232       -0.5694996109754942       -0.2876863149339062        0.3821857584263099
N       -0.3321788650898332       -0.4720668740371275       -0.0076781979664695        0.6912401171080508
O       -0.6377331441068361       -0.4211656948232498        0.0835367988553587       -0.8725174461238596
N       -0.4787325600650955       -1.7825117595619120        0.0005277208435230        0.2474011401682276
N       -2.4610031400789656       -0.0480844719273868       -0.2421048627122275        0.6702435867055674
N       -1.6083833682711006       -0.4088373641477455       -0.1178190079093622        0.4541121342365513
O       -2.2303728516472856        0.0273787875080064       -0.3996400788528544       -0.9868585802909050
N       -2.0478446921964837        0.7378739444018318        1.0560720190393118        0.0599450946998507
N       -2.7588662039488336       -0.9671659322809094        0.0181411473552448        0.2206755189221874
O       -2.4652424754962525       -0.5953878056312989        0.0589428965293357       -0.4697503805861822
N       -2.1213817178212024        0.4294983533505421       -0.8844789813376710        0.2516416240072437

        RMSE         5.145492169E-01 kcal/mol
         MAE         2.966812545E-01 kcal/mol
     max. AE         4.064125143E+00 kcal/mol

Coordinates in bohr
s                   x[bohr]                   y[bohr]                   z[bohr]                      q[e]
+        3.0572181807873786       -0.3231099978843917       -0.3527493269341428        0.4430274979955926
-        3.4868601204319369       -0.0778297284246958       -0.4649150841984809       -0.2397694117010844
-        4.0231844961629220       -0.5311094527352389        1.6472281122587344       -0.8131298231863546
+        4.2551125066370599       -0.4475359455845876        1.8349485448261988        0.6882536752431530
+        4.3175298917715006       -0.5582652084266319       -1.8924633682744507        0.3475741677786745
-        3.8432079698558486       -0.7738433622948721       -1.4946724028153520       -0.5008653247699173
+        3.2103148191584534       -3.7921795394583095       -0.1440091039009983        0.0349490083854984
+        1.9667943343346792        0.4260531642725018        0.0967520754290346        0.4467179932355987
+       -0.1308857035385066        0.5402130179010325       -0.0077697348367549        0.4002291909132988
-        0.1974962731130208        2.9176628718385924        0.0417670791657684       -0.7616466859448209
-        1.2697334613834732        2.6488734985480629        0.0118053969122363       -0.5843812830331953
+        0.4842069222706497        3.1295228859657658        0.0530385200537391        0.6069756333905771
+       -1.9217367013982025       -0.8788558398876730        0.4838639725165812        0.3928054759361322
-       -1.0826700320835658       -1.3427343768523778        0.9607114168247051       -0.3905898912988163
-       -1.1616924010273684       -1.2633008465092062       -0.7623154448746905       -0.7184687902173786
+       -1.9469091579898048       -1.0761982932984611       -0.5436483452672911        0.3821857584263099
+       -0.6277270796851891       -0.8920771048311696       -0.0145096912936747        0.6912401171080508
-       -1.2051409834890503       -0.7958878166540940        0.1578616712340870       -0.8725174461238596
+       -0.9046734258623199       -3.3684590409799475        0.0009972478649541        0.2474011401682276
+       -4.6506219286409722       -0.0908664828300264       -0.4575118841676771        0.6702435867055674
+       -3.0394040707737582       -0.7725906480933102       -0.2226456573218443        0.4541121342365513
-       -4.2147938472697524        0.0517384100372381       -0.7552102977882654       -0.9868585802909050
+       -3.8698656157238398        1.3943796700307587        1.9956868847435842        0.0599450946998507
+       -5.2135015422447761       -1.8276787298840111        0.0342818001029862        0.2206755189221874
-       -4.6586331115335984       -1.1251198910804729        0.1113859314816432       -0.4697503805861822
+       -4.0088304542353326        0.8116342591676371       -1.6714230384521238        0.2516416240072437
