3
s                      x[A]                      y[A]                      z[A]                      q[e]
O       -0.9423262808403121       -1.5880594032922104       -0.1304885103691254       -0.1750926556561506
O       -0.2096079135573559        0.5310889290274221        0.1517483151937298       -0.7282261022556180
N       -0.0661300547550021        0.3196971305456747        0.1752782293258429        0.9999999963064747

        RMSE         8.030552172E-01 kcal/mol
         MAE         5.394297674E-01 kcal/mol
     max. AE         7.078014102E+00 kcal/mol

Coordinates in bohr
s                   x[bohr]                   y[bohr]                   z[bohr]                      q[e]
-       -1.7807385916094483       -3.0009973431802592       -0.2465875471166110       -0.1750926556561506
-       -0.3961015503520415        1.0036126241245378        0.2867627557158003       -0.7282261022556180
+       -0.1249676921484841        0.6041400198260634        0.3312278491810339        0.9999999963064747
