5
s                      x[A]                      y[A]                      z[A]                      q[e]
O       -0.9377472962603162       -0.9137367649093741       -0.0784131766978556       -0.7139178270177587
N       -0.8610939346583693       -0.2282550335622921       -0.0072445395022441        0.9999993030202984
N       -0.2664536188066927        0.2710768719666120        0.0762506393146953        0.9997966521366861
O       -0.6907303142332989        0.3986410406891874        0.2994221449430225       -0.7032470515334369
O       -0.4626139820540274        0.4244456780022813       -0.3529216520488864       -0.4859498382110828

        RMSE         2.446281926E-01 kcal/mol
         MAE         1.427830417E-01 kcal/mol
     max. AE         2.346900774E+00 kcal/mol

Coordinates in bohr
s                   x[bohr]                   y[bohr]                   z[bohr]                      q[e]
-       -1.7720855648205613       -1.7267122364405618       -0.1481794285860786       -0.7139178270177587
+       -1.6272317047971965       -0.4313395001899168       -0.0136901955643020        0.9999993030202984
+       -0.5035243646817884        0.5122610469626934        0.1440928251958414        0.9997966521366861
-       -1.3052911204523601        0.7533223892700546        0.5658258498394502       -0.7032470515334369
-       -0.8742137278895745        0.8020860865585719       -0.6669252661165179       -0.4859498382110828
