7
s                      x[A]                      y[A]                      z[A]                      q[e]
N       -1.0633047387159014       -0.7427042136765809        0.0060419238437643        0.2424094948588321
N       -1.2450534792144770       -1.6185173372306341       -0.2327474511490510        0.2840779663954262
O       -1.0934986749209470       -1.2270669312743960       -0.1507426994219219       -0.9999661213289639
N       -0.8646876336325138       -0.2953999273788346       -0.0839452004535178        0.8695503524233776
N       -0.1924621759153015        0.2619010356173146        0.1490972327855013        0.9891597322575434
O       -0.5697855305789318        0.2899679331430398        0.1859199395088461       -0.9999999968939234
O       -0.4987569746880164        0.3200629730560219       -0.3899252379342295       -0.2885501893175860

        RMSE         9.433885830E-02 kcal/mol
         MAE         6.119134287E-02 kcal/mol
     max. AE         8.621342982E-01 kcal/mol

Coordinates in bohr
s                   x[bohr]                   y[bohr]                   z[bohr]                      q[e]
+       -2.0093547440745487       -1.4035075560722481        0.0114175813355880        0.2424094948588321
+       -2.3528100872637623       -3.0585544966711673       -0.4398289390700812        0.2840779663954262
-       -2.0664130141516304       -2.3188204377145913       -0.2848624173196425       -0.9999661213289639
+       -1.6340228116356683       -0.5582249602261289       -0.1586334384038070        0.8695503524233776
+       -0.3637008019896057        0.4949212292905006        0.2817529360282292        0.9891597322575434
-       -1.0767386030428576        0.5479599788054111        0.3513377669334056       -0.9999999968939234
-       -0.9425140853222533        0.6048313619756696       -0.7368519090996731       -0.2885501893175860
