1
s                      x[A]                      y[A]                      z[A]                      q[e]
N        3.3320072225881390        0.1321436191415941       -0.1308380553327184        0.0005069782733784

        RMSE         1.300546640E+00 kcal/mol
         MAE         9.969247227E-01 kcal/mol
     max. AE         5.245983804E+00 kcal/mol

Coordinates in bohr
s                   x[bohr]                   y[bohr]                   z[bohr]                      q[e]
+        6.2965810987389830        0.2497152494044196       -0.2472480913663348        0.0005069782733784
