1
s                      x[A]                      y[A]                      z[A]                      q[e]
O       -0.8861853797320226        0.7075675385405668       -0.0067041791349544       -0.1552907842464503

        RMSE         4.827410584E+00 kcal/mol
         MAE         3.854686328E+00 kcal/mol
     max. AE         1.997300280E+01 kcal/mol

Coordinates in bohr
s                   x[bohr]                   y[bohr]                   z[bohr]                      q[e]
-       -1.6746476640783692        1.3371088631059977       -0.0126690624610727       -0.1552907842464503
