4
s                      x[A]                      y[A]                      z[A]                      q[e]
N       -0.8378305008205159        1.3318412994621527        0.1574183325818804        0.2319580802942677
N       -1.6521791127573047        0.7001433539959268       -0.2460456577071770        0.3124896586524800
N       -1.6674057477285291        1.3922940128069208        0.0543824569576815        0.3002614758499610
O       -1.1765135977910772        0.8888522380483843       -0.0043073287705035       -0.9999999990431591

        RMSE         1.209790357E-01 kcal/mol
         MAE         7.932917818E-02 kcal/mol
     max. AE         1.139022628E+00 kcal/mol

Coordinates in bohr
s                   x[bohr]                   y[bohr]                   z[bohr]                      q[e]
+       -1.5832701861059453        2.5168152985573329        0.2974775357059887        0.2319580802942677
+       -3.1221660333132135        1.3230791876117713       -0.4649589074247065        0.3124896586524800
+       -3.1509402032211460        2.6310543703197542        0.1027679496795165        0.3002614758499610
-       -2.2232884827021819        1.6796872959116924       -0.0081396717085565       -0.9999999990431591
