2
s                      x[A]                      y[A]                      z[A]                      q[e]
O       -1.2356786529188239       -1.2376100601302658       -0.1888933550852333       -0.2445555858352938
N       -0.3721760300408614       -0.1833257410534708        0.0853344102614269        0.3687671622142651

        RMSE         7.522899105E-01 kcal/mol
         MAE         5.159379648E-01 kcal/mol
     max. AE         6.498705931E+00 kcal/mol

Coordinates in bohr
s                   x[bohr]                   y[bohr]                   z[bohr]                      q[e]
-       -2.3350942330912376       -2.3387440637575967       -0.3569567080299476       -0.2445555858352938
+       -0.7033107672373933       -0.3464354423376605        0.1612586644715550        0.3687671622142651
