8
s                      x[A]                      y[A]                      z[A]                      q[e]
N       -1.5466531576547278       -1.2878262585623328       -0.2645744665115271        0.4175738514121122
O       -1.3776676113785189       -0.7928540698940708       -0.1758176208333420       -0.5071252077158103
N       -0.9994633264652268       -0.6584769439700909       -0.1008683098541392        0.7666055613111644
O       -1.2914885034959291       -1.0576995036783989       -0.1970359827127481       -0.9999984975300285
N       -0.2288902322305581        0.4687581590625293        0.0099678120172860        0.9726190087151118
O       -0.6730746799838537        0.2449401054764606        0.2357013792916875       -0.4834573550684307
O       -0.4340352904714134        0.4457801762351001       -0.1282313153518865       -0.9625228319458523
N       -1.0003701953777697       -0.1017499707480103       -0.0427094732547505        0.9205170472007047

        RMSE         3.967540615E-02 kcal/mol
         MAE         2.505901967E-02 kcal/mol
     max. AE         3.654374423E-01 kcal/mol

Coordinates in bohr
s                   x[bohr]                   y[bohr]                   z[bohr]                      q[e]
+       -2.9227508790419843       -2.4336389258558482       -0.4999732814959000        0.4175738514121122
-       -2.6034144774190695       -1.4982770495543924       -0.3322471514046048       -0.5071252077158103
+       -1.8887119594583255       -1.2443410840319113       -0.1906134803621422        0.7666055613111644
-       -2.4405595657846910       -1.9987623849848486       -0.3723440441875370       -0.9999984975300285
+       -0.4325398517081950        0.8858245397019777        0.0188364347827179        0.9726190087151118
-       -1.2719268071496554        0.4628697164912637        0.4454110542539466       -0.4834573550684307
-       -0.8202078277745071        0.8424024452426635       -0.2423220667222815       -0.9625228319458523
+       -1.8904256933347234       -0.1922795779870849       -0.0807092074140444        0.9205170472007047
