4
s                      x[A]                      y[A]                      z[A]                      q[e]
N       -0.7154018141381013        1.1692772595702170        0.2571477893470543        0.8152084237865358
O       -0.8822920834407637        0.9933296320552683        0.3909645114451045       -0.9999999939993398
N       -1.1781956069784483        1.0451291304319845        0.0707183303890308        0.6495875305345354
O       -0.7922261310854437        0.9682967465551172       -0.1379672746236243       -0.7027312431898470

        RMSE         6.752213137E-02 kcal/mol
         MAE         4.240428468E-02 kcal/mol
     max. AE         6.231315012E-01 kcal/mol

Coordinates in bohr
s                   x[bohr]                   y[bohr]                   z[bohr]                      q[e]
+       -1.3519134983766956        2.2096137853135733        0.4859388956328546        0.8152084237865358
-       -1.6672904003626292        1.8771209568862521        0.7388158514046700       -0.9999999939993398
+       -2.2264670194068170        1.9750078222543432        0.1336382764849098        0.6495875305345354
-       -1.4970904171825410        1.8298156591610222       -0.2607203633144777       -0.7027312431898470
