3
s                      x[A]                      y[A]                      z[A]                      q[e]
O       -2.0569409241983556        1.4034247399607320       -0.5039040319385014       -0.0528024526832196
O       -2.2381193978849252        1.2542701789151958        0.1633706525374355       -0.1126306182936648
N       -2.3596625116578771        1.4251889501373449       -0.1100230311019020        0.1696683999298868

        RMSE         2.433521254E-01 kcal/mol
         MAE         1.796108470E-01 kcal/mol
     max. AE         1.429947474E+00 kcal/mol

Coordinates in bohr
s                   x[bohr]                   y[bohr]                   z[bohr]                      q[e]
-       -3.8870550029810031        2.6520883962176542       -0.9522406138777221       -0.0528024526832196
-       -4.2294326980770869        2.3702271254787100        0.3087257902330850       -0.1126306182936648
+       -4.4591158955433272        2.6932167927883546       -0.2079133962753234        0.1696683999298868
