1
s                      x[A]                      y[A]                      z[A]                      q[e]
N       -2.3722628672963753        1.6263017052943276       -0.2033627057935598        0.0042353289530024

        RMSE         1.921599817E+00 kcal/mol
         MAE         1.461360323E+00 kcal/mol
     max. AE         8.136420099E+00 kcal/mol

Coordinates in bohr
s                   x[bohr]                   y[bohr]                   z[bohr]                      q[e]
+       -4.4829271167834568        3.0732648203713082       -0.3842998180818841        0.0042353289530024
