12
s                      x[A]                      y[A]                      z[A]                      q[e]
O        1.4838195806974819       -1.6591508947581055       -0.0778517080162119       -0.9999992977995120
N        2.5491388181855505       -0.2018437207786411       -1.1769671764874843        0.0209477017263380
N        1.4930650172196438       -1.7294790382618748       -0.0719472958119242        0.9304286288445035
N        0.6204213793150557        0.3259241964523299        0.0185889204894864        0.9684537478788322
O        0.4700501522045621        1.2094936541833776        0.0021846213216546       -0.9118151126182280
O       -0.6214301270249020       -0.6857344420649625        0.4926637158365736       -0.4344748811727125
O       -0.6788414642299436       -0.6957347618576009       -0.5089039910271974       -0.4238196574874855
N       -1.1283679412034542       -0.6872516829278528       -0.0193210474547810        0.3823919269010116
N       -0.4019150404636234       -1.9325377731146511        0.0071539064090192        0.2022725624719837
N       -1.7872736890248369       -0.3934146058880959       -0.0249544370971241        0.7119119395338360
N       -2.6154871636048247       -1.0646284139490041       -0.0277451216319262        0.5354651595309572
O       -2.3745410734902603       -0.8467788235565410       -0.0263258027919184       -0.9817627178095245

        RMSE         1.014872451E+00 kcal/mol
         MAE         6.462077041E-01 kcal/mol
     max. AE         8.283041038E+00 kcal/mol

Coordinates in bohr
s                   x[bohr]                   y[bohr]                   z[bohr]                      q[e]
-        2.8040126271099117       -3.1353407919011236       -0.1471184065497502       -0.9999992977995120
+        4.8171742221439278       -0.3814293524150132       -2.2241456222147336        0.0209477017263380
+        2.8214839700471028       -3.2682417220351434       -0.1359606845518358        0.9304286288445035
+        1.1724264892842418        0.6159074689548174        0.0351279686930408        0.9684537478788322
-        0.8882660528963895        2.2856117568857846        0.0041283359857629       -0.9118151126182280
-       -1.1743327461855340       -1.2958502902964071        0.9309994948815047       -0.4344748811727125
-       -1.2828244499993702       -1.3147481558714889       -0.9616891671938511       -0.4238196574874855
+       -2.1323063776212301       -1.2987174599936231       -0.0365114881465102        0.3823919269010116
+       -0.7595093521785492       -3.6519671182888489        0.0135189238402038        0.2022725624719837
+       -3.3774577834936244       -0.7434458588834300       -0.0471570517285295        0.7119119395338360
+       -4.9425544238636299       -2.0118561277441644       -0.0524306812018561        0.5354651595309572
-       -4.4872323025472216       -1.6001800653592402       -0.0497485573095387       -0.9817627178095245
