10
s                      x[A]                      y[A]                      z[A]                      q[e]
O        1.9604501296450443        0.1236012684234279       -0.1296496532078219       -0.2017180704236006
N        1.4841719275388348        0.1943706883149776       -1.1757474401933434        0.2644226894969584
N        2.9427644290073292        0.0142190199848148        0.2104182291996566        0.1673341112769991
O        1.2103440117963116        0.0677619792606713        0.0200268726381655       -0.5999760684343098
N        0.8931237256501969        0.0155826505451917        0.7232496570490152        0.4020131891148491
O       -0.9277037603226115       -1.4050096269002781       -0.0298055152192274       -0.1978570299860227
N       -0.0576827872982166       -0.1670502345697033        0.2527654122919857        0.2518181184676175
N       -2.1202438665104304        1.0376252233916121       -0.2200747914873062        0.3254891198563858
O       -1.2633417200989461        1.3093966600881568       -0.0141708739644634       -0.8084231753420837
N       -0.9780683808429099        1.9557394018582301        0.0234225509513710        0.3968971159732068

        RMSE         9.464500353E-01 kcal/mol
         MAE         5.910908680E-01 kcal/mol
     max. AE         1.167340908E+01 kcal/mol

Coordinates in bohr
s                   x[bohr]                   y[bohr]                   z[bohr]                      q[e]
-        3.7047138276474265        0.2335725460794775       -0.2450023368233684       -0.2017180704236006
+        2.8046784661412385        0.3673073677320337       -2.2218406546735263        0.2644226894969584
+        5.5610188225631383        0.0268700535437114        0.3976328249911642        0.1673341112769991
-        2.2872186998829278        0.1280515825216222        0.0378453044355579       -0.5999760684343098
+        1.6877592376274069        0.0294469418391284        1.3667437721539386        0.4020131891148491
-       -1.7531060325671062       -2.6550833984732112       -0.0563242607925049       -0.1978570299860227
+       -0.1090046701466668       -0.3156791925302267        0.4776574032202847        0.2518181184676175
+       -4.0066802268864805        1.9608274930771445       -0.4158810830282466        0.3254891198563858
-       -2.3873698538518093        2.4744010771558136       -0.0267790707512166       -0.8084231753420837
+       -1.8482813717630837        3.6958118422787636        0.0442622064576728        0.3968971159732068
