22
s                      x[A]                      y[A]                      z[A]                      q[e]
N       -2.1296886233390806        1.5720225245947694        0.0014478141713678        0.0696053443939020
O       -1.8719024977281020       -0.2913295531210955        0.3537332399740173       -0.3238935914939121
N       -2.0080444063128136       -0.4089065023412196        0.0032414960151573        0.5838576454139115
N       -3.2973195951456953       -0.6088563444733950       -0.0155584397059862        0.0601646003367963
O       -1.8605163075372200       -0.3141067637518558       -0.3150983898387524       -0.3984772032888422
O       -0.8356336611247356       -0.4115433231906977        0.0846170906888870       -0.9775287012490098
N       -0.6612930052302963       -0.2358806280620810        0.0921466117575879        0.7458543250909805
O       -0.8706973127389414       -1.5160188314833898       -0.3673623907978351       -0.7465444056576918
N       -0.8754168950084211       -1.4982548284569606       -0.2781729425711251        0.9786784579292706
N        1.7155544731195540       -1.1689450897814171        0.0267392002025433        0.4854205156358385
O        1.3509790169196900       -0.6480610610341974       -0.0160287969420363       -0.8601766610570770
N        1.1149661053959548       -0.5770887454576170        0.0253768031256292        0.9846565484500517
O        1.4845313876915749       -0.9927170595876039        0.0351535466370458       -0.9848862642656749
O        0.5346661880475155        0.3184628812120904       -0.1760924420862258       -0.9260890529151092
N        0.2060284135479082        0.4579039461943805       -0.0347782792904853        0.7420749361731450
O        0.5668523735887070        0.3920644091445871        0.4278096853744757       -0.3352851937986872
N        0.9687424091493887       -0.1276682264742448       -0.0338974512354722        0.9755836075035296
N        2.2727043629807615        1.7389813461068830        0.0139847581955543        0.0651316870006698
N        1.0323325152538032        1.1252886232420036        0.0207937269404162        0.9930507577779505
O        0.9088605773082502        1.0892047442316406       -0.3272618664703276       -0.6681719364989009
O        0.9716958420601689        1.1429504133670949        0.3929179062887206       -0.5542707840629947
N       -0.2009051897569814        2.2623228447094181       -0.0110076136100236        0.0912453685818545

        RMSE         4.778371765E-01 kcal/mol
         MAE         2.783889216E-01 kcal/mol
     max. AE         4.570433138E+00 kcal/mol

Coordinates in bohr
s                   x[bohr]                   y[bohr]                   z[bohr]                      q[e]
+       -4.0245282306141767        2.9706920345349070        0.0027359722644419        0.0696053443939020
-       -3.5373830542665572       -0.5505330676508884        0.6684589450217439       -0.3238935914939121
+       -3.7946539756887780       -0.7727213003437852        0.0061255397054102        0.5838576454139115
+       -6.2310309829308492       -1.1505717408021254       -0.0294011899837625        0.0601646003367963
-       -3.5158662731934158       -0.5935757576448919       -0.5954496593679859       -0.3984772032888422
-       -1.5791187607393864       -0.7777041695911959        0.1599031269350242       -0.9775287012490098
+       -1.2496626685662111       -0.4457497853383154        0.1741318596107333        0.7458543250909805
-       -1.6453794592487025       -2.8648603925402103       -0.6942143074013174       -0.7465444056576918
+       -1.6542981771645859       -2.8312912919284550       -0.5256706769721352        0.9786784579292706
+        3.2419281075000606       -2.2089860753855906        0.0505297651965933        0.4854205156358385
-        2.5529803432184717       -1.2246579179282429       -0.0302900363410245       -0.8601766610570770
+        2.1069805783667022       -1.0905396789989414        0.0479552078471013        0.9846565484500517
-        2.8053577473829328       -1.8759633626903707        0.0664305754825256       -0.9848862642656749
-        1.0103726639523380        0.6018076266150602       -0.3327664883060105       -0.9260890529151092
+        0.3893372756681117        0.8653130500737564       -0.0657214229736990        0.7420749361731450
-        1.0711957396483607        0.7408943568227133        0.8084431391760405       -0.3352851937986872
+        1.8306578394085564       -0.2412579829592471       -0.0640568991861046        0.9755836075035296
+        4.2947888101667360        3.2861984814219984        0.0264273629203494        0.0651316870006698
+        1.9508257242347040        2.1264873100208854        0.0392944490449408        0.9930507577779505
-        1.7174975773380845        2.0582986611471430       -0.6184352989350693       -0.6681719364989009
-        1.8362390187398447        2.1598632562426232        0.7425072326739860       -0.5542707840629947
+       -0.3796557858238301        4.2751705838674603       -0.0208013750178068        0.0912453685818545
