3
s                      x[A]                      y[A]                      z[A]                      q[e]
N        1.6845907057521743        1.5970180457113436       -0.0551187705762707        0.3684984471731482
O        0.8432474360201722        1.5934232479125703       -0.0809299677867580       -0.9431344563357998
N        0.3812392450937829        1.9444187665523081       -0.0620380725742229        0.5280183876704994

        RMSE         5.148220714E-01 kcal/mol
         MAE         3.695676853E-01 kcal/mol
     max. AE         3.651030384E+00 kcal/mol

Coordinates in bohr
s                   x[bohr]                   y[bohr]                   z[bohr]                      q[e]
+        3.1834150673633248        3.0179267238083303       -0.1041593807610949        0.3684984471731482
-        1.5935067100726479        3.0111335404922497       -0.1529354744590971       -0.9431344563357998
+        0.7204377615035417        3.6744189419843822       -0.1172349665165578        0.5280183876704994
