4
s                      x[A]                      y[A]                      z[A]                      q[e]
O        0.9258231948705653        1.3370738222299630        0.5621496512429506       -0.1494789581447129
N        1.9255627574183574        1.5105414201506011        0.0076276536570143        0.1711882583655154
O        0.8287028250065824        1.1858581935939658       -0.5502786160945112       -0.1984704989130869
N       -0.0311082497155023        2.1671385209268386       -0.0069025367860481        0.1301435772001321

        RMSE         2.505829835E-01 kcal/mol
         MAE         1.583727300E-01 kcal/mol
     max. AE         2.157758863E+00 kcal/mol

Coordinates in bohr
s                   x[bohr]                   y[bohr]                   z[bohr]                      q[e]
-        1.7495522789017413        2.5267033335337170        1.0623088823708104       -0.1494789581447129
+        3.6387862489020844        2.8545095852447608        0.0144141763916039        0.1711882583655154
-        1.5660213786556456        2.2409472095227443       -1.0398758771145764       -0.1984704989130869
+       -0.0587860722046508        4.0952982804814830       -0.0130439040965289        0.1301435772001321
