7
s                      x[A]                      y[A]                      z[A]                      q[e]
N        1.9617084132332814        1.1933969461957439       -0.0583326851871096        0.7389269704704383
N        2.0879813191946379        1.5956838225677346       -0.0450594061265096        0.2968811686825609
O        1.9706362148760073        1.2941174656748531       -0.0642516136957789       -0.9249509587313844
O        0.6175233063149248        1.1684311847051185        0.3444689461818222       -0.3219089356207842
N        0.4323367637463370        1.1240943655667197       -0.1297347098271910        0.6291363796290254
O        0.5367892444005000        1.0574386854225200       -0.3877973830473114       -0.5467668963069492
N       -0.0771848447056652        2.3524329102160957        0.0460761345200155        0.0820646503849409

        RMSE         1.312496421E-01 kcal/mol
         MAE         7.802940132E-02 kcal/mol
     max. AE         1.355111089E+00 kcal/mol

Coordinates in bohr
s                   x[bohr]                   y[bohr]                   z[bohr]                      q[e]
+        3.7070916390173529        2.2551933872676875       -0.1102327991661878        0.7389269704704383
+        3.9457128483500079        3.0154054074766616       -0.0851499369548797        0.2968811686825609
-        3.7239627390245174        2.4455275842970439       -0.1214179530037374       -0.9249509587313844
-        1.1669499250224105        2.2080149355369034        0.6509519670087160       -0.3219089356207842
+        0.8169980774473419        2.1242304900913727       -0.2451630705391332        0.6291363796290254
-        1.0143846590083920        1.9982695099127179       -0.7328308461286811       -0.5467668963069492
+       -0.1458582175297009        4.4454539288221451        0.0870712751625826        0.0820646503849409
