8
s                      x[A]                      y[A]                      z[A]                      q[e]
N        2.2867553708228026        1.7031552490844086        0.0167421461733704        0.0701259262223962
O        1.0326859210061405        0.9574475800790742        0.3650531804883984       -0.4546819160813278
N        1.0684337239261077        0.9247643960003940        0.0072759453848341        0.8794349189973919
O        0.9531637504530548        0.8990120705262306       -0.3292017393536172       -0.5651731844900295
O        0.4090591843785535        2.0169374364681896       -0.0166738953443871       -0.6811151194586387
N        0.0904363405969232        2.0541475521178576        0.0424473345611311        0.7370194144480922
N        0.5100211109924714        2.1332825011743366        0.0010964873206114        0.4496416285473386
O        0.1736213936039066        2.0457664423693935        0.0911998953353126       -0.4818692896773752

        RMSE         1.160040426E-01 kcal/mol
         MAE         6.881624135E-02 kcal/mol
     max. AE         1.247722986E+00 kcal/mol

Coordinates in bohr
s                   x[bohr]                   y[bohr]                   z[bohr]                      q[e]
+        4.3213413667748535        3.2184969699054418        0.0316380710200518        0.0701259262223962
-        1.9514935643177829        1.8093137058318025        0.6898505323503983       -0.4546819160813278
+        2.0190471214233625        1.7475514390151732        0.0137495440811253        0.8794349189973919
-        1.8012184410705034        1.6988865967753535       -0.6221011274026889       -0.5651731844900295
-        0.7730098275786232        3.8114593671078767       -0.0315090956454379       -0.6811151194586387
+        0.1708999155168081        3.8817762947823615        0.0802138370762184        0.7370194144480922
+        0.9638002179774999        4.0313196754511642        0.0020720607359926        0.4496416285473386
-        0.3280968834316990        3.8659382927303589        0.1723428248541597       -0.4818692896773752
