9
s                      x[A]                      y[A]                      z[A]                      q[e]
N        1.8688426804915388        1.1868278935185679        0.0143925559023040        0.7332801543268217
N        2.0936446910982922        1.5681353928626576        0.0497680274999434        0.3400415620628640
O        1.9139646058764017        1.3118777020696619        0.0312049053329933       -0.9558334564245206
O        0.6402344016697132        1.1532603634253034        0.3067017393495869       -0.5540562157173711
N        0.5633992423804732        1.1135116930649052        0.0583029961072936        0.6536500803552331
O        0.6736492362910100        1.0172260014748327       -0.4036157489492261       -0.3981521793001979
N       -0.1827263351337159        2.3129002368039822       -0.1639600812536720        0.0853246110025692
N        0.2534320715271328        1.9775355347721781       -0.3288474748139332        0.6872791128540803
O        0.2127285130068040        2.0139953190862094       -0.3763331639754753       -0.6381512906516312

        RMSE         8.957506100E-02 kcal/mol
         MAE         5.217776634E-02 kcal/mol
     max. AE         1.150358600E+00 kcal/mol

Coordinates in bohr
s                   x[bohr]                   y[bohr]                   z[bohr]                      q[e]
+        3.5316008376954975        2.2427796768041190        0.0271979889006960        0.7332801543268217
+        3.9564150701945273        2.9633464201476389        0.0940479417791467        0.3400415620628640
-        3.6168689189262317        2.4790895670066213        0.0589687248501957       -0.9558334564245206
-        1.2098676752521180        2.1793462382197855        0.5795822895722715       -0.5540562157173711
+        1.0646702673895274        2.1042321373875295        0.1101766949364189        0.6536500803552331
-        1.2730125612138354        1.9222785504819944       -0.7627232254355805       -0.3981521793001979
+       -0.3453027293113456        4.3707480030660824       -0.3098396490772523        0.0853246110025692
+        0.4789172065937198        3.7370005640802022       -0.6214316644467247        0.6872791128540803
-        0.4019986286587529        3.8058995710269845       -0.7111666118406604       -0.6381512906516312
