2
s                      x[A]                      y[A]                      z[A]                      q[e]
N        0.4024976132112152        1.5892334706425404       -0.1504328073247979        0.8249796332978179
O        0.4256374580295365        1.4169078316098904       -0.1326591802656616       -0.9999999780855435

        RMSE         9.044939257E-01 kcal/mol
         MAE         6.799817412E-01 kcal/mol
     max. AE         5.430831188E+00 kcal/mol

Coordinates in bohr
s                   x[bohr]                   y[bohr]                   z[bohr]                      q[e]
+        0.7606102551196533        3.0032160089252251       -0.2842768061276342        0.8249796332978179
-        0.8043382244118749        2.6775677467590109       -0.2506895187298402       -0.9999999780855435
