4
s                      x[A]                      y[A]                      z[A]                      q[e]
O        1.2266499905022186        1.6276525833199795       -0.2983247281155341       -0.2282216958858623
N        0.9760274738003080        1.3214798970535335       -0.1508169394515632        0.9999999998051001
O        0.8478084875719885        1.1955983867623767        0.3423206503958848       -0.4459281370519249
O        0.8366840798473659        1.0453543171411446       -0.4866740066609338       -0.5008705116550386

        RMSE         7.931118950E-02 kcal/mol
         MAE         5.319748811E-02 kcal/mol
     max. AE         6.417218022E-01 kcal/mol

Coordinates in bohr
s                   x[bohr]                   y[bohr]                   z[bohr]                      q[e]
-        2.3180325338446393        3.0758176098686896       -0.5637520325900283       -0.2282216958858623
+        1.8444246164050480        2.4972350857293835       -0.2850027106432105        0.9999999998051001
-        1.6021258483496750        2.2593535070200961        0.6468922763368192       -0.4459281370519249
-        1.5811037644422110        1.9754333634617489       -0.9196805849684037       -0.5008705116550386
