3
s                      x[A]                      y[A]                      z[A]                      q[e]
O        1.2774672219001486       -0.6764301976542850        0.1170416812511249       -0.9962502415502217
O        1.2208244926426486       -0.7281929264395673       -0.2269453767619237       -0.4734253052942630
N        1.0998363392559580       -0.5782503869342956        0.0237730784983803        0.9999999999427442

        RMSE         6.202796974E-01 kcal/mol
         MAE         4.297808799E-01 kcal/mol
     max. AE         3.635984851E+00 kcal/mol

Coordinates in bohr
s                   x[bohr]                   y[bohr]                   z[bohr]                      q[e]
-        2.4140631836407436       -1.2782678165559049        0.2211767228277584       -0.9962502415502217
-        2.3070239383456110       -1.3760851974664410       -0.4288646075188771       -0.4734253052942630
+        2.0783894640198830       -1.0927348632458365        0.0449246075209490        0.9999999999427442
