4
s                      x[A]                      y[A]                      z[A]                      q[e]
O        1.7370678803977508        1.2808666197831995       -0.1977373250394836       -0.3908391701100140
O        1.7244173717730014        1.4392759152430528        0.0011212072442574       -0.9999999985692256
N        1.9882372181253398        1.5992953169968243       -0.0017066806800746        0.4366567931431667
N        1.6577323610053472        1.2813521680653983       -0.0812987372488050        0.9999999819594001

        RMSE         8.179872777E-02 kcal/mol
         MAE         5.747196175E-02 kcal/mol
     max. AE         5.138879230E-01 kcal/mol

Coordinates in bohr
s                   x[bohr]                   y[bohr]                   z[bohr]                      q[e]
-        3.2825825552812837        2.4204871146311708       -0.3736693891052585       -0.3908391701100140
-        3.2586765586327653        2.7198372987770236        0.0021187746215259       -0.9999999985692256
+        3.7572238146990493        3.0222301428512579       -0.0032251590689511        0.4366567931431667
+        3.1326601516086923        2.4214046679052128       -0.1536323477457984        0.9999999819594001
