3
s                      x[A]                      y[A]                      z[A]                      q[e]
O       -1.3319468086383428       -0.6443410065914914       -0.2934633826255795       -0.4427791134723903
O       -1.3000454159757333       -0.6237091967565753        0.3443518322010825       -0.4658778865010120
N       -1.1875555800528641       -0.7842762154937931       -0.0017299017356544        0.9373898611064666

        RMSE         2.357224029E-01 kcal/mol
         MAE         1.617335233E-01 kcal/mol
     max. AE         1.785097124E+00 kcal/mol

Coordinates in bohr
s                   x[bohr]                   y[bohr]                   z[bohr]                      q[e]
-       -2.5170146820040546       -1.2176280338597361       -0.5545654210127844       -0.4427791134723903
-       -2.4567297868510329       -1.1786395637992173        0.6507306536596558       -0.4658778865010120
+       -2.2441548050591225       -1.4820672539938144       -0.0032690405043410        0.9373898611064666
