2
s                      x[A]                      y[A]                      z[A]                      q[e]
O       -3.1560025557744473       -0.3136744017655321        0.3244780283865314       -0.9776235839905066
N       -3.1643865187280675       -0.3429756491822549        0.2971872951375047        0.9999999967689054

        RMSE         5.113665347E-01 kcal/mol
         MAE         3.845351376E-01 kcal/mol
     max. AE         2.630004030E+00 kcal/mol

Coordinates in bohr
s                   x[bohr]                   y[bohr]                   z[bohr]                      q[e]
-       -5.9639804816586492       -0.5927587119036811        0.6131746073790753       -0.9776235839905066
+       -5.9798238754869759       -0.6481300446555659        0.5616025957754888        0.9999999967689054
