2
s                      x[A]                      y[A]                      z[A]                      q[e]
N        1.0850435104201619       -0.5940338932855944        0.0203984314467572        0.5303244530812046
O        1.3197549413784730       -0.7493783479324939       -0.0029801452367687       -0.9999999999829450

        RMSE         9.201649474E-01 kcal/mol
         MAE         7.216781292E-01 kcal/mol
     max. AE         4.560060646E+00 kcal/mol

Coordinates in bohr
s                   x[bohr]                   y[bohr]                   z[bohr]                      q[e]
+        2.0504350688994530       -1.1225613675492152        0.0385474488232976        0.5303244530812046
-        2.4939753919249652       -1.4161198419404599       -0.0056316583115806       -0.9999999999829450
