2
s                      x[A]                      y[A]                      z[A]                      q[e]
O       -0.9109755571490509       -1.3662624769387754       -0.0901168741309954       -0.2373619009762672
N       -0.0425523997680296       -0.2739437281980517        0.1803766720811429        0.3340431393709732

        RMSE         1.217587664E+00 kcal/mol
         MAE         8.538116833E-01 kcal/mol
     max. AE         7.214305150E+00 kcal/mol

Coordinates in bohr
s                   x[bohr]                   y[bohr]                   z[bohr]                      q[e]
-       -1.7214943099980622       -2.5818618969039275       -0.1702962113899368       -0.2373619009762672
+       -0.0804123815425711       -0.5176786200811767        0.3408625096548753        0.3340431393709732
