5
s                      x[A]                      y[A]                      z[A]                      q[e]
O       -0.7139342284100292       -1.4731800794039369        0.1697349693333954       -0.0440111051028666
O       -1.0461616653146650       -0.9293932806144012       -0.1436476868515663       -0.5798694297516738
N       -0.0479499936412228        0.2181410689889909        0.1736858040843714        0.7205617806421882
N       -0.9345331310953138       -0.2848616894717674       -0.0601846982057886        0.9999999916436231
O       -0.5877270794671002        0.2694637838174451        0.0525377406745498       -0.9999999990365649

        RMSE         3.163732319E-01 kcal/mol
         MAE         2.101790388E-01 kcal/mol
     max. AE         2.458751174E+00 kcal/mol

Coordinates in bohr
s                   x[bohr]                   y[bohr]                   z[bohr]                      q[e]
-       -1.3491401632850086       -2.7839068835536573        0.3207526059531005       -0.0440111051028666
-       -1.9769590303975912       -1.7562987632019924       -0.2714547867049897       -0.5798694297516738
+       -0.0906123556993556        0.4122268771037946        0.3282186015993865        0.7205617806421882
+       -1.7660116729367199       -0.5383105767368540       -0.1137325965522737        0.9999999916436231
-       -1.1106432167080085        0.5092127521445463        0.0992819411252252       -0.9999999990365649
