6
s                      x[A]                      y[A]                      z[A]                      q[e]
O       -0.6593185760217734       -1.4522240950609724        0.1195978304440751       -0.0406524031063629
O       -0.9879557244002598       -0.8317309619300404       -0.1112897117710555       -0.7775932957193936
N       -0.9231282171166753       -0.2896945884544332       -0.0632297249123348        0.9999999997445954
N       -0.2915633059617904        0.2535269874113557        0.1593475218570860        0.9964088041347794
O       -0.6551697895604219        0.4115902586956958        0.3868831253361670       -0.6193763039799653
O       -0.5707677592585293        0.4440419840463368       -0.3242642775002156       -0.4621055626789469

        RMSE         2.392817072E-01 kcal/mol
         MAE         1.419283058E-01 kcal/mol
     max. AE         2.222168574E+00 kcal/mol

Coordinates in bohr
s                   x[bohr]                   y[bohr]                   z[bohr]                      q[e]
-       -1.2459315381079983       -2.7443058124560720        0.2260071447382444       -0.0406524031063629
-       -1.8669657431947848       -1.5717437281113675       -0.2103070758284352       -0.7775932957193936
+       -1.7444595090326875       -0.5474434322060961       -0.1194868630723508        0.9999999997445954
+       -0.5509747965008494        0.4790965716198567        0.3011231750802977        0.9964088041347794
-       -1.2380914679430368        0.7777928648412024        0.7311031494465302       -0.6193763039799653
-       -1.0785947462398671        0.8391177380524908       -0.6127706767448644       -0.4621055626789469
