1
s                      x[A]                      y[A]                      z[A]                      q[e]
O        0.7159956462313503       -0.0665485037507705        1.4950782974737422       -0.0231616637724948

        RMSE         2.213722327E+00 kcal/mol
         MAE         1.842440916E+00 kcal/mol
     max. AE         7.014736672E+00 kcal/mol

Coordinates in bohr
s                   x[bohr]                   y[bohr]                   z[bohr]                      q[e]
-        1.3530356783974433       -0.1257584461479593        2.8252885183411411       -0.0231616637724948
