4
s                      x[A]                      y[A]                      z[A]                      q[e]
O        1.0706602455022916       -0.1006508886699363        1.3655110960547325       -0.9999999920425094
N        1.1371274919977283       -0.1252615897779773        1.1650731158168093        0.9999999987446988
O        1.0654866336082827       -0.1940935429708465        1.3705680870119090       -0.9999999798634471
N        1.0669589308985858       -0.1836057979418651        1.5708050209340458        0.9768383093887629

        RMSE         9.302417617E-02 kcal/mol
         MAE         6.280664276E-02 kcal/mol
     max. AE         7.973033703E-01 kcal/mol

Coordinates in bohr
s                   x[bohr]                   y[bohr]                   z[bohr]                      q[e]
-        2.0232546374147726       -0.1902026138701259        2.5804419928171818       -0.9999999920425094
+        2.1488595296044446       -0.2367100987198250        2.2016691050275785        0.9999999987446988
-        2.0134779278556847       -0.3667836389346803        2.5899983207451625       -0.9999999798634471
+        2.0162601665096114       -0.3469646731562736        2.9683912860593971        0.9768383093887629
