4
s                      x[A]                      y[A]                      z[A]                      q[e]
O        2.1257533838518716        0.1850542534581595        0.2064761798439968       -0.7051294570771240
N        1.8878118238686346        0.0574564540754731       -0.4117906498615587        0.9151843204856281
O        1.9066688206383813        0.1384472402492229       -0.3695960143662547       -0.9999785193448557
N        2.1589145580539615        0.0315984085736696        0.1513137241611623        0.9999999716075021

        RMSE         8.138571140E-02 kcal/mol
         MAE         5.449066727E-02 kcal/mol
     max. AE         8.130494940E-01 kcal/mol

Coordinates in bohr
s                   x[bohr]                   y[bohr]                   z[bohr]                      q[e]
-        4.0170917057452646        0.3497018573869786        0.3901834313359298       -0.7051294570771240
+        3.5674473235127508        0.1085769623425894       -0.7781715492626444        0.9151843204856281
-        3.6030818829562148        0.2616273668964930       -0.6984352442129983       -0.9999785193448557
+        4.0797572429858118        0.0597123382045541        0.2859414976876677        0.9999999716075021
