4
s                      x[A]                      y[A]                      z[A]                      q[e]
N        1.1057621673656894       -0.5103363620316328        0.0266321310876550        0.3058497830236736
N        0.2046575730296904       -0.7355077210485861       -0.0349447392467016        0.9999999951672588
O        0.4365663109263073       -0.6989834537440464       -0.3552556101048693       -0.7539689378799521
O        0.4438284544028507       -0.6640335125455470        0.2852047506702097       -0.9614490153786782

        RMSE         1.552046206E-01 kcal/mol
         MAE         1.111592781E-01 kcal/mol
     max. AE         1.024341407E+00 kcal/mol

Coordinates in bohr
s                   x[bohr]                   y[bohr]                   z[bohr]                      q[e]
+        2.0895876562138147       -0.9643959561022810        0.0503274338929593        0.3058497830236736
+        0.3867467625269993       -1.3899081559414617       -0.0660359867018034        0.9999999951672588
-        0.8249907632521882       -1.3208872938028677       -0.6713358076306315       -0.7539689378799521
-        0.8387142255066353       -1.2548414768368485        0.5389588684461813       -0.9614490153786782
