11
s                      x[A]                      y[A]                      z[A]                      q[e]
O       -1.8090472428072943        1.4324461970056293       -0.4342290492181959       -0.0469280008101145
O       -2.0015039514557742        1.3748678630043678        0.1107758870258139       -0.0932829764140046
N       -2.2383843138939570        1.4756722885964555       -0.1329094910353925        0.1701564184776261
N       -0.6327633693421353        1.1040569808191338        0.2573700320767407        0.7499756311335282
O       -0.8136947156857238        0.8966245979127044        0.4072711489404774       -0.8199116999989056
N       -1.0598900984200312        0.9783185482846462        0.0373790589352537        0.4179510705201689
O       -0.7324474819779891        0.9249830629008360       -0.2038882034860158       -0.5516422105994556
O       -0.3397506077133665        1.9811255368642267        0.0874409032299791       -0.5437050799542766
N       -0.3286242326069422        2.0184539056993973        0.2281212039917892        0.8626259707664534
O       -0.3221903490078256        2.0350146403881268        0.4812805207623923       -0.6300403075395871
N       -0.2411417409451080        2.1742971904173745        0.5537412498754516        0.2928980418256595

        RMSE         2.565267538E-02 kcal/mol
         MAE         1.380662791E-02 kcal/mol
     max. AE         3.784019959E-01 kcal/mol

Coordinates in bohr
s                   x[bohr]                   y[bohr]                   z[bohr]                      q[e]
-       -3.4186038369203953        2.7069310017942487       -0.8205739787403379       -0.0469280008101145
-       -3.7822943072730535        2.5981237197717282        0.2093360877834455       -0.0932829764140046
+       -4.2299333167804063        2.7886164763748660       -0.2511625375308841        0.1701564184776261
+       -1.1957494702785540        2.0863653206480093        0.4863588735253361        0.7499756311335282
-       -1.5376601623782920        1.6943749274037581        0.7696309302980464       -0.8199116999989056
+       -2.0029020090984018        1.8487541197134716        0.0706361842149768        0.4179510705201689
-       -1.3841251422196079        1.7479646595697114       -0.3852928648001858       -0.5516422105994556
-       -0.6420355995361227        3.7437846848239946        0.1652393592673213       -0.5437050799542766
+       -0.6210097978158691        3.8143250786325429        0.4310865989541787        0.8626259707664534
-       -0.6088515198904636        3.8456203316306103        0.9094883737586414       -0.6300403075395871
+       -0.4556918478023542        4.1088262052412663        1.0464193066333123        0.2928980418256595
