8
s                      x[A]                      y[A]                      z[A]                      q[e]
O       -2.3931868016826261        1.4720698487966279        0.0173468046611454       -0.8386493073842904
N       -2.3881734281910201        1.4771272974778213       -0.0005931211214604        0.9257382234327103
N       -0.5438484734440192        0.9242104255118230        0.2117553561551795        0.5952768248811937
O       -0.7861659175977336        0.8449484160316243        0.3297842303068072       -0.8745318250266938
N       -1.0150240952933260        0.8714145721916318        0.0585817931449985        0.4415016164862790
O       -0.7160120876524998        0.9054205422327202       -0.1703710798923686       -0.5421717770696588
O       -0.1517559862614641        2.3018450145882579        0.0801817043145376       -0.8937481925921902
N       -0.1579728826970593        2.2973296655511324        0.1142014384995680        0.9946812946797423

        RMSE         5.727893474E-02 kcal/mol
         MAE         3.085072946E-02 kcal/mol
     max. AE         7.088783112E-01 kcal/mol

Coordinates in bohr
s                   x[bohr]                   y[bohr]                   z[bohr]                      q[e]
-       -4.5224676222405211        2.7818088517697426        0.0327807099613801       -0.8386493073842904
+       -4.5129937193767553        2.7913660446707560       -0.0011208364787846        0.9257382234327103
+       -1.0277246685575210        1.7465045865101880        0.4001596287320699        0.5952768248811937
-       -1.4856382734289633        1.5967210964391705        0.6232018757747748       -0.8745318250266938
+       -1.9181175508449946        1.6467348831751831        0.1107035449822699        0.4415016164862790
-       -1.3530667481805292        1.7109968531833641       -0.3219546806950718       -0.5421717770696588
-       -0.2867772519329080        4.3498566608222866        0.1515214614269164       -0.8937481925921902
+       -0.2985254835465179        4.3413238877812699        0.2158094418974991        0.9946812946797423
