1
s                      x[A]                      y[A]                      z[A]                      q[e]
N       -0.8164183604964603       -0.4065670221926075       -0.0525414110446318        0.4951302754726913

        RMSE         1.355518588E+00 kcal/mol
         MAE         1.004529325E+00 kcal/mol
     max. AE         7.235454093E+00 kcal/mol

Coordinates in bohr
s                   x[bohr]                   y[bohr]                   z[bohr]                      q[e]
+       -1.5428071051336083       -0.7683003235869631       -0.0992888771194592        0.4951302754726913
