4
s                      x[A]                      y[A]                      z[A]                      q[e]
N       -1.7077926870129638        1.3617736015097706        0.0603185476391121        0.9999999808709346
O       -1.8688083941256570        1.4256296034453626       -0.1018566009687733       -0.9999997957213540
O       -1.7652175673987462        1.3119341452599134        0.1613658188463911       -0.5940670701325820
N       -2.0786251408282848        1.4577575218724377       -0.1260771051570164        0.5983022139360038

        RMSE         5.619743470E-02 kcal/mol
         MAE         3.589387656E-02 kcal/mol
     max. AE         3.782998144E-01 kcal/mol

Coordinates in bohr
s                   x[bohr]                   y[bohr]                   z[bohr]                      q[e]
+       -3.2272604575142214        2.5733791517318112        0.1139855353233028        0.9999999808709346
-       -3.5315360458541436        2.6940495068567851       -0.1924810799010239       -0.9999997957213540
-       -3.3357777542305254        2.4791962291778438        0.3049372036299204       -0.5940670701325820
+       -3.9280322336566669        2.7547624736650067       -0.2382511994373077        0.5983022139360038
