14
s                      x[A]                      y[A]                      z[A]                      q[e]
O        1.6022301492063560       -1.6132690359824897       -0.0851078016494446       -0.9999992977995120
N        2.6081635149409665       -0.2089792766550275       -1.2221726139740712        0.0197950204853366
N        1.5971554027716579       -1.6829600829074978       -0.0784269262010669        0.9369756024421002
N        1.0266398323016122        0.3161478975446523        0.0453451233087775        0.5840988903221993
N       -0.0641977208852729        0.3019131205474513       -0.0078767733365822        0.3914782168381694
O        0.7607831732166371        1.1593623699407531        0.0040437108099339       -0.6068753170350456
O       -0.1161082477205596        1.4038103584279307        0.0036191833037134       -0.2753871982035769
O       -0.6432465868070006       -0.6637219435952730        0.5082958251911367       -0.4357783977342113
O       -0.6800160622601068       -0.6496083935322462       -0.4977174719433674       -0.4370613068132621
N       -1.1280072161934589       -0.6919592304463866       -0.0183926631184545        0.3555826257751067
N       -0.4253282254544861       -1.9439040191575458        0.0072831248892857        0.1908607822327986
N       -1.7086072484014845       -0.3832626102405591       -0.0243366115301977        0.6883162922039885
N       -2.5072274478206857       -1.0867715191084679       -0.0256578535633551        0.5856834155172470
O       -2.3013681646319974       -0.8829820941994188       -0.0310091530233755       -0.9976893282313385

        RMSE         8.574946602E-01 kcal/mol
         MAE         5.272304442E-01 kcal/mol
     max. AE         7.632493585E+00 kcal/mol

Coordinates in bohr
s                   x[bohr]                   y[bohr]                   z[bohr]                      q[e]
-        3.0277761719514449       -3.0486366446882758       -0.1608304362572382       -0.9999992977995120
+        4.9287147336498629       -0.3949135987742846       -2.3095715184458876        0.0197950204853366
+        3.0181862910337220       -3.1803336367729709       -0.1482054113815093        0.9369756024421002
+        1.9400681125360002        0.5974329414986943        0.0856898641787036        0.5840988903221993
+       -0.1213161103517499        0.5705331115170175       -0.0148849443584490        0.3914782168381694
-        1.4376718382361875        2.1908773593497446        0.0076415059613283       -0.6068753170350456
-       -0.2194127890986708        2.6528171095095785        0.0068392652418480       -0.2753871982035769
-       -1.2155598802007659       -1.2542526968516345        0.9605399003248363       -0.4357783977342113
-       -1.2850441185838808       -1.2275819525745757       -0.9405497098282048       -0.4370613068132621
+       -2.1316247061457356       -1.3076134355262305       -0.0347570960116882        0.3555826257751067
+       -0.8037538595359597       -3.6734462103844887        0.0137631113782553        0.1908607822327986
+       -3.2287997554508983       -0.7242613674827455       -0.0459895306137327        0.6883162922039885
+       -4.7379732106117034       -2.0537005320627633       -0.0484863162018434        0.5856834155172470
-       -4.3489555450020179       -1.6685943317201066       -0.0585988065965924       -0.9976893282313385
