35
s                      x[A]                      y[A]                      z[A]                      q[e]
N       -1.7754547104599629        1.1859149996489304        0.0108886605337683        0.5036127715733091
O       -1.8111274343839250        1.1391497471756007        0.0082291629371655       -0.6893308602784594
N       -2.1136962996641273        1.4822802525324710       -0.0250326939229146        0.1203321509318172
O       -2.7263442281385073       -0.3218194534828736        0.2069919204157993       -0.8676631892205413
N       -2.6707656465173506       -0.2981470439992084        0.2029703614922667        0.8767537974203158
N       -3.2314766485270088       -0.5736408782620604        0.0863751619376902        0.1136607555473774
N       -1.7768420030482146        0.2305525468461129        0.1512125214663697        0.9945206652815261
O       -1.8626839248333509       -0.2752834612292666       -0.2448089750527317       -0.8187303100635807
N       -1.9322761896549348       -0.4076604415001763       -0.1337757137540954        0.6723473440899421
O       -1.8052968137572298        0.0671035830277603        0.2802666330019888       -0.8958314780811207
O       -1.1177195953519703       -0.3356741539864215        0.3288509362999429       -0.5684760023270483
O       -0.3401582938960956       -0.3356680654572674        0.0623716983163237       -0.2368260504438107
O       -1.0709830814549832       -0.3016049580497681       -0.4170276043229509       -0.3697075100789993
N       -0.8595165640034687       -0.3087721916354813        0.0252259620000454        0.9921231269288943
N       -0.8108505212439904       -1.8274950440666609        0.0139264073147399        0.1278740872813554
O       -0.8404682459833943       -1.3633963031514797        0.2487722895025829       -0.5174571039743882
N       -0.8513717281481822       -1.2606553839704138        0.0329629936027716        0.9899837990941105
O       -0.8179132884567946       -1.3508493183434445       -0.2367910016986577       -0.4290523822500538
N        1.6906812229561481       -1.1718240715921393        0.0272254000215770        0.4858373404337242
O        1.3753801925027604       -0.6443171421772432       -0.0154510446182351       -0.8594610445518193
N        1.1166988859879385       -0.5759600797285047        0.0250560204330341        0.9868068591148653
O        1.4578322104269079       -0.9953591866928867        0.0350880437460340       -0.9880811479690669
O        0.5345757701444760        0.3263157476409176       -0.1687112290311702       -0.9436509323120839
N        0.2133790325932812        0.4609185693998720       -0.0337737484342722        0.7229910554705965
O        0.5669870709677470        0.3909550588965228        0.4323257615615171       -0.3340436031360386
N        0.9722046711349223       -0.1248817865836996       -0.0340003574252786        0.9800278614785887
O        2.1012729526204637        1.6725302368658206        0.1346422654126846       -0.1510713158386678
N        2.1910809659931147        1.7061777545921055        0.0862649485021663        0.2092706921894995
O        1.0251287891269032        0.9733896121471578        0.3435202925900545       -0.5222140124794329
N        1.1052481550168498        0.9086141726182150        0.0464744402180743        0.8519415279769602
O        0.9323304321769521        0.9484999399621511       -0.3030194331359145       -0.5759410441406168
O        0.2422564171806798        1.9538619222842164       -0.1686408000573208       -0.6137298445957378
N        0.1251049776074721        2.0169727384368699        0.0007756664727058        0.7333882660416982
N        0.3875691859440558        1.8381427168893376       -0.0055125218155829        0.4785684667338849
O        0.2406098779604015        1.9359574311638668        0.2335742889753917       -0.4587727358469988

        RMSE         4.643392770E-01 kcal/mol
         MAE         2.680581080E-01 kcal/mol
     max. AE         4.264983455E+00 kcal/mol

Coordinates in bohr
s                   x[bohr]                   y[bohr]                   z[bohr]                      q[e]
+       -3.3551231509233559        2.2410545574088951        0.0205765862819035        0.5036127715733091
-       -3.4225348292887117        2.1526810380464125        0.0155508641930109       -0.6893308602784594
+       -3.9943071187588397        2.8011037184608374       -0.0473049356967212        0.1203321509318172
-       -5.1520439149044943       -0.6081506289271464        0.3911580397684235       -0.8676631892205413
+       -5.0470156171991043       -0.5634162582733288        0.3835583948055559        0.8767537974203158
+       -6.1066058465283923       -1.0840241542823892        0.1632254001043037        0.1136607555473774
+       -3.3577447539710290        0.4356811710659393        0.2857502523113514        0.9945206652815261
-       -3.5199624762279087       -0.5202103485914022       -0.4626219159037008       -0.8187303100635807
+       -3.6514727971910355       -0.7703665866185558       -0.2527994612328822        0.6723473440899421
-       -3.4115165531628122        0.1268073939593871        0.5296271784779595       -0.8958314780811207
-       -2.1121839202727704       -0.6343322184290947        0.6214382057072702       -0.5684760023270483
-       -0.6428060147666139       -0.6343207127764866        0.1178654277975310       -0.2368260504438107
-       -2.0238647089488109       -0.5699507687942590       -0.7880679589261702       -0.3697075100789993
+       -1.6242509062611001       -0.5834948773484400        0.0476701594312921        0.9921231269288943
+       -1.5322854138358664       -3.4534651289174740        0.0263170957364310        0.1278740872813554
-       -1.5882548020525367       -2.5764456134179725        0.4701114947629892       -0.5174571039743882
+       -1.6088593971577998       -2.3822934142879606        0.0622910301844568        0.9899837990941105
-       -1.5456321095559293       -2.5527352484305057       -0.4474701421832823       -0.4290523822500538
+        3.1949244768412242       -2.2144265625280299        0.0514485496968141        0.4858373404337242
-        2.5990918822096831       -1.2175829366526625       -0.0291982426806935       -0.8594610445518193
+        2.1102550591210600       -1.0884068098837290        0.0473490164123097        0.9868068591148653
-        2.7549036145776618       -1.8809562593080038        0.0663067929580877       -0.9880811479690669
-        1.0102017988787551        0.6166473934653457       -0.3188180171583014       -0.9436509323120839
+        0.4032279325164409        0.8710098623035852       -0.0638231347708845        0.7229910554705965
-        1.0714502808045632        0.7387979886766630        0.8169772863312507       -0.3340436031360386
+        1.8372005663357986       -0.2359923747010660       -0.0642513637014531        0.9800278614785887
-        3.9708303952847990        3.1606240842235107        0.2544370065411771       -0.1510713158386678
+        4.1405429444305639        3.2242086775276766        0.1630171268958178        0.2092706921894995
-        1.9372126547720576        1.8394397803237466        0.6491592715323431       -0.5222140124794329
+        2.0886163136494047        1.7170319399578897        0.0878239638461231        0.8519415279769602
-        1.7618491752441741        1.7924051165416583       -0.5726237393183592       -0.5759410441406168
-        0.4577982806061413        3.6922639200777363       -0.3186849256864290       -0.6137298445957378
+        0.2364141446096567        3.8115260781603717        0.0014657971981139        0.7333882660416982
+        0.7323996161009051        3.4735863144258134       -0.0104171564920633        0.4785684667338849
-        0.4546867724249904        3.6584293354445840        0.4413914361120340       -0.4587727358469988
