11
s                      x[A]                      y[A]                      z[A]                      q[e]
N       -2.0733961804954384        0.6771473009673702       -0.3726796234583443        0.8848071911705956
N       -2.5075259894575286        0.9405842981912371       -0.4141347974022459        0.1705886014665043
O       -2.1148822657536428        0.6924969391184560       -0.3760722935676031       -0.8264270509745582
O       -1.9495641597376945        0.9257832271806994       -0.4206617055390785       -0.1304340974554148
O       -0.8977776929056346        0.7795136272251548       -0.2639445465742796       -0.3328115761009501
O       -1.1918118458183196        0.7573519483569676        0.3929284526997723       -0.2693977203988212
N       -1.1603634605988546        0.6122657585734493        0.0106032274402906        0.1153282918789267
O       -0.8149641615261420        2.2085662283461538       -0.1086452312830932       -0.7356567541811154
N       -0.8334018327966005        2.2048609751073585       -0.0360382807916902        0.9614347893424106
O       -0.9758265684662493        1.8971254635623125        0.2069481493179708       -0.5763607426236939
N       -0.9761682217087090        1.7005777962460746        0.1794681578307598        0.6077878666282307

        RMSE         7.781047595E-02 kcal/mol
         MAE         4.511369562E-02 kcal/mol
     max. AE         8.101763800E-01 kcal/mol

Coordinates in bohr
s                   x[bohr]                   y[bohr]                   z[bohr]                      q[e]
+       -3.9181509307067044        1.2796229454212944       -0.7042624208750193        0.8848071911705956
+       -4.7385373725423827        1.7774467214873970       -0.7826013461122088        0.1705886014665043
-       -3.9965482698621044        1.3086295576517253       -0.7106736382155456       -0.8264270509745582
-       -3.6841423259125596        1.7494767509140274       -0.7949354149368446       -0.1304340974554148
-       -1.6965539611370328        1.4730672665177695       -0.4987829053335368       -0.3328115761009501
-       -2.2521979816729956        1.4311877629765495        0.7425271625024803       -0.2693977203988212
+       -2.1927691465203107        1.1570145996995025        0.0200371959080885        0.1153282918789267
-       -1.5400590673477841        4.1735853015095863       -0.2053097319620693       -0.7356567541811154
+       -1.5749012164401726        4.1665833876627971       -0.0681024807286420        0.9614347893424106
-       -1.8440449603465332        3.5850475517649949        0.3910753243813171       -0.5763607426236939
+       -1.8446905914046567        3.2136262899397066        0.3391456665405758        0.6077878666282307
