12
s                      x[A]                      y[A]                      z[A]                      q[e]
N       -1.5752723948951102        1.4126246783856613       -0.3020364063062769        0.9995429238982230
N       -2.5417953324440945        0.9862193743374337       -0.4824907391991766        0.1295593492501305
O       -1.7183037916545922        1.3950792690013920       -0.2435783493075831       -0.7379497523811408
O       -1.6974590613844451        1.0239160873087261       -0.4241886417259487       -0.3891127855266728
N       -0.8588975091531281        1.2995525523115405        0.1980398356814422        0.3055418614588501
N       -1.6060134714201413        0.6654994100489943       -0.2512094988075243        0.4238277564033590
N       -1.7604559331564360        1.3585239012371000        0.0192708063921630        0.2635317393756945
O       -1.1764262875498845        0.8981824277941016       -0.0056085409764281       -0.9951412766392321
O       -0.9749783049053599        1.7979799000022736       -0.0815115237392356       -0.6013617621825165
N       -0.9052001446597572        1.9071326166334441        0.0297121857710037        0.9857797485982381
O       -1.0022678232462268        1.9702455335204583        0.1156550949691887       -0.8362762340493978
N       -1.0181906567569925        2.1946947506016756        0.1727757836912871        0.3209172305465791

        RMSE         1.088202027E-01 kcal/mol
         MAE         6.515455171E-02 kcal/mol
     max. AE         1.019425662E+00 kcal/mol

Coordinates in bohr
s                   x[bohr]                   y[bohr]                   z[bohr]                      q[e]
+       -2.9768333993458103        2.6694737602118463       -0.5707660878363671        0.9995429238982230
+       -4.8032970452863708        1.8636845171181220       -0.9117753551561435        0.1295593492501305
-       -3.2471235665629279        2.6363177417165398       -0.4602963702824324       -0.7379497523811408
-       -3.2077327351933094        1.9349209804638583       -0.8016003583919959       -0.3891127855266728
+       -1.6230810621373204        2.4557984095085192        0.3742410513685966        0.3055418614588501
+       -3.0349256147798602        1.2576116216463564       -0.4747171528597458        0.4238277564033590
+       -3.3267795696029570        2.5672381082266380        0.0364165462979102        0.2635317393756945
-       -2.2231234902583803        1.6973187992296532       -0.0105986064088570       -0.9951412766392321
-       -1.8424419745342466        3.3976895900823498       -0.1540344559359096       -0.6013617621825165
+       -1.7105803621317486        3.6039583303649678        0.0561478936959220        0.9857797485982381
-       -1.8940116902941433        3.7232244582602072        0.2185564545055822       -0.8362762340493978
+       -1.9241014847707529        4.1473720076171388        0.3264989122878759        0.3209172305465791
