3
s                      x[A]                      y[A]                      z[A]                      q[e]
N       -2.2349906926119116        0.9258787229726426       -0.3190598893277368        0.2387512206146075
O       -1.1957391271402131        0.9987647270209020       -0.0347480415990769       -0.6493069043085019
N       -0.8867481263734702        1.9197648202778106        0.1311710306167081        0.2794144824460085

        RMSE         2.485216089E-01 kcal/mol
         MAE         1.571639418E-01 kcal/mol
     max. AE         2.279723778E+00 kcal/mol

Coordinates in bohr
s                   x[bohr]                   y[bohr]                   z[bohr]                      q[e]
+       -4.2235203019838155        1.7496572118069338       -0.6029358084483074        0.2387512206146075
-       -2.2596194677890002        1.8873917978371546       -0.0656642820182711       -0.6493069043085019
+       -1.6757111011087265        3.6278297356138309        0.2478773234596219        0.2794144824460085
