5
s                      x[A]                      y[A]                      z[A]                      q[e]
O       -1.4062784338723129        0.9469433864497798       -0.1076996766732025       -0.9962999969374133
N       -1.6150226910835255        1.0773529717441717        0.4192357163624552        0.5821841260239945
N       -1.8388902253472361        0.9446864129481786       -0.1182642261457386        0.9999999936962722
O       -1.6726156632422684        1.0267750139402665        0.2971217981430113       -0.9299595905173266
N       -0.8436389248535060        2.0461419130402931        0.1256954796979226        0.2129342664865873

        RMSE         2.603456298E-01 kcal/mol
         MAE         1.543255226E-01 kcal/mol
     max. AE         2.369828101E+00 kcal/mol

Coordinates in bohr
s                   x[bohr]                   y[bohr]                   z[bohr]                      q[e]
-       -2.6574810961564284        1.7894636567036573       -0.2035228927127118       -0.9962999969374133
+       -3.0519505725477454        2.0359020570445905        0.7922406859351594        0.5821841260239945
+       -3.4749989006877051        1.7851985949132154       -0.2234869978546550        0.9999999936962722
-       -3.1607855166788874        1.9403235688102471        0.5614788243938555       -0.9299595905173266
+       -1.5942465167488238        3.8666478294665017        0.2375300318371185        0.2129342664865873
