8
s                      x[A]                      y[A]                      z[A]                      q[e]
N       -2.5952146203066313        0.9813641322657946       -0.4179126267408074        0.6579893830869542
O       -2.5811537977390762        0.9882241245897145       -0.4145782573307067       -0.5803517881904917
O       -1.0338213629045896        0.7613510270051381       -0.2608174895184662       -0.5042083646517940
O       -1.2786437352517726        0.6307878474878676        0.2742975552855638       -0.6154704831857720
N       -1.2937750632949989        0.6771792630394770        0.0502805462252632        0.7860677996068391
O       -0.9523173401099242        2.1171508694455672        0.3218038079646576       -0.9499091831334893
N       -1.1767444947325352        2.3175063477318707        0.3117345874807902        0.0900677390139172
N       -0.8998022974703411        2.1102298891460696        0.2976566733069118        0.9846736962059506

        RMSE         1.117170806E-01 kcal/mol
         MAE         6.761848698E-02 kcal/mol
     max. AE         1.113459689E+00 kcal/mol

Coordinates in bohr
s                   x[bohr]                   y[bohr]                   z[bohr]                      q[e]
+       -4.9042448691635592        1.8545094393299235       -0.7897404089108095        0.6579893830869542
-       -4.8776737654122231        1.8674729460448753       -0.7834393639246148       -0.5803517881904917
-       -1.9536392385372214        1.4387449263757579       -0.4928736239193688       -0.5042083646517940
-       -2.4162864716582573        1.1920162750191317        0.5183472563723429       -0.6154704831857720
+       -2.4448805375744147        1.2796833449839782        0.0950164618041699        0.7860677996068391
-       -1.7996189573322319        4.0008353095270435        0.6081210631826275       -0.9499091831334893
+       -2.2237248146847435        4.3794522912232701        0.5890929941712680        0.0900677390139172
+       -1.7003799092766798        3.9877565522413039        0.5624895919649370        0.9846736962059506
