2
s                      x[A]                      y[A]                      z[A]                      q[e]
O       -0.9194365973875762        0.3628644995371598       -0.1359152218320100       -0.2896677645100930
N       -0.6562084274913672       -0.2982897865289623       -0.0357221635567433        0.7903239181378503

        RMSE         1.812421138E+00 kcal/mol
         MAE         1.423254454E+00 kcal/mol
     max. AE         9.360663403E+00 kcal/mol

Coordinates in bohr
s                   x[bohr]                   y[bohr]                   z[bohr]                      q[e]
-       -1.7374833587853535        0.6857145247765509       -0.2568425455433455       -0.2896677645100930
+       -1.2400542091760356       -0.5636860025610185       -0.0675051057310554        0.7903239181378503
