2
s                      x[A]                      y[A]                      z[A]                      q[e]
O        1.2821009637769942        0.0894901210550552        0.0738696183599619       -0.4120778648724437
N        0.4807629436028902       -0.0029724316012687        0.4824091443046694        0.4427895601697942

        RMSE         1.191504107E+00 kcal/mol
         MAE         9.081486211E-01 kcal/mol
     max. AE         6.035397581E+00 kcal/mol

Coordinates in bohr
s                   x[bohr]                   y[bohr]                   z[bohr]                      q[e]
-        2.4228196867240466        0.1691118197281214        0.1395933476924193       -0.4120778648724437
+        0.9085102946783901       -0.0056170816530539        0.9116211631522892        0.4427895601697942
