2
s                      x[A]                      y[A]                      z[A]                      q[e]
N       -0.0000105320205682        1.0024584889870594       -0.1475675885941041        0.0984171502390808
N       -0.0000161402116559        1.0006008734128236       -0.7904844488560957        0.1180707919039214

        RMSE         3.605066454E-01 kcal/mol
         MAE         2.517568870E-01 kcal/mol
     max. AE         1.684799281E+00 kcal/mol

Coordinates in bohr
s                   x[bohr]                   y[bohr]                   z[bohr]                      q[e]
+       -0.0000199026344217        1.8943719963258245       -0.2788623274370912        0.0984171502390808
+       -0.0000305005796366        1.8908616116441339       -1.4937991147714964        0.1180707919039214
