2
s                      x[A]                      y[A]                      z[A]                      q[e]
O        1.2077050178565853        0.1328411938388845        0.0295661824566095       -0.4185653961966683
N        0.5579798549188701        0.0156718619168588        0.3544792299767772        0.4261154277215240

        RMSE         1.813547940E+00 kcal/mol
         MAE         1.385136401E+00 kcal/mol
     max. AE         8.621489348E+00 kcal/mol

Coordinates in bohr
s                   x[bohr]                   y[bohr]                   z[bohr]                      q[e]
-        2.2822317240901020        0.2510334745343475        0.0558719874183079       -0.4185653961966683
+        1.0544291093193576        0.0296155268988557        0.6698686618192895        0.4261154277215240
