3
s                      x[A]                      y[A]                      z[A]                      q[e]
O        0.9223963502394703        0.0536050799843615        0.2373478782554994       -0.9999999966713399
N        0.5194378484071362        0.0412694949794732        0.1849318059605797        0.8645956553586256
N        1.3590063558421512       -0.2058574375810122        1.5136662641622061        0.1429543728375699

        RMSE         3.220999815E-01 kcal/mol
         MAE         2.114687737E-01 kcal/mol
     max. AE         2.538370612E+00 kcal/mol

Coordinates in bohr
s                   x[bohr]                   y[bohr]                   z[bohr]                      q[e]
-        1.7430764810744761        0.1012989201037045        0.4485224863614012       -0.9999999966713399
+        0.9815952726865682        0.0779880428471612        0.3494704651518051        0.8645956553586256
+        2.5681498152981508       -0.3890141779166429        2.8604146846114711        0.1429543728375699
