6
s                      x[A]                      y[A]                      z[A]                      q[e]
O        1.0303225188518705       -0.1794134916762548        0.2236138709143518       -0.6518702376703482
O        1.2960408236063321        0.2148580858117281        0.4288759534616104       -0.7868657027900059
N        0.6830192070256774       -0.0305692538558637        0.3018562999357274        0.9951683882198513
N        1.4249663266330799        0.0565333471551401        0.7401271357935493        0.6553496926838877
N        1.0593827992060338       -0.1720466023424187        1.5528448356835620        0.7957619138147780
O        1.0427232610405675       -0.1339280415668657        1.3952364309067693       -0.9999940227333072

        RMSE         5.815248858E-02 kcal/mol
         MAE         3.495005513E-02 kcal/mol
     max. AE         6.697940330E-01 kcal/mol

Coordinates in bohr
s                   x[bohr]                   y[bohr]                   z[bohr]                      q[e]
-        1.9470273815218953       -0.3390423624802293        0.4225689738816050       -0.6518702376703482
-        2.4491622040287666        0.4060229380242826        0.8104580938370409       -0.7868657027900059
+        1.2907192397059115       -0.0577675176471780        0.5704257361225782        0.9951683882198513
+        2.6927960953362042        0.1068325430786453        1.3986375846693437        0.6553496926838877
+        2.0019433525202865       -0.3251209592427226        2.9344514547734954        0.7957619138147780
-        1.9704613880109432       -0.2530873190803082        2.6366147346750579       -0.9999940227333072
