7
s                      x[A]                      y[A]                      z[A]                      q[e]
O        1.0576903855988127       -0.2493420862892509        0.1993873322212351       -0.4514939997312752
O        1.2935146226771468        0.2116477140607404        0.3984924390182093       -0.8184653241855022
N        0.6686770671176697       -0.0222121437371347        0.3265487936463298        0.9027899939856122
N        1.4154830150627771        0.0610833774940960        0.7516172303549595        0.6665112145238071
N        1.0186445374985948       -0.0970806356878576        1.4920092711125008        0.6721333658252688
N        1.2201020115560255       -0.4088947405698740        1.8692229878292868        0.0360747747124678
O        1.0174093753742208       -0.0715325800945532        1.3071322359868303       -0.9999999936055227

        RMSE         5.387655720E-02 kcal/mol
         MAE         3.263242978E-02 kcal/mol
     max. AE         6.531105104E-01 kcal/mol

Coordinates in bohr
s                   x[bohr]                   y[bohr]                   z[bohr]                      q[e]
-        1.9987451543116406       -0.4711882546369576        0.3767874507838075       -0.4514939997312752
-        2.4443883761347291        0.3999562146540092        0.7530415728101205       -0.8184653241855022
+        1.2636165232267782       -0.0419748683224880        0.6170877865902066        0.9027899939856122
+        2.6748752337059463        0.1154308542817959        1.4203507165460216        0.6665112145238071
+        1.9249591950660010       -0.1834558135353980        2.8194888990465845        0.6721333658252688
+        2.3056586469610703       -0.7726990738171918        3.5323195144073432        0.0360747747124678
-        1.9226250769303954       -0.1351769854260818        2.4701219357724202       -0.9999999936055227
