2
s                      x[A]                      y[A]                      z[A]                      q[e]
O        1.8427414968905056        0.1145476544335447       -1.7378316762816066       -0.9939148258798562
N        1.8171210944599281        0.1254151525751616       -1.7567900275162660        0.9999996925089976

        RMSE         8.298613575E-01 kcal/mol
         MAE         6.294545562E-01 kcal/mol
     max. AE         3.947432183E+00 kcal/mol

Coordinates in bohr
s                   x[bohr]                   y[bohr]                   z[bohr]                      q[e]
-        3.4822767491392534        0.2164636951929846       -3.2840259203175233       -0.9939148258798562
+        3.4338612053214481        0.2370002903495625       -3.3198520119412649        0.9999996925089976
