25
s                      x[A]                      y[A]                      z[A]                      q[e]
N        1.8229201977648148        1.2583634829923600        1.0130783847047413        0.0664324048692386
O        2.9576781866548849       -0.6853587268914126        0.2545493789028413       -0.4728962965009700
N        3.0383129730306697       -0.6767406995317728        0.2332806939288795        0.4821530795833855
O        1.5419035322596089       -0.3819817204024509        0.4183842086773724       -0.2968400973681476
N        2.1376385755726171       -0.5161919088802978        0.1324789728675905        0.2532920717159922
N        1.4841359958814495        0.0708004044804699        0.1314221174250899        0.9646971451163958
O        1.5483256491184954        0.0322477603964017       -0.0082572818750456       -0.9889568535212167
N        0.8902243776486155       -0.3924853070824372       -0.0651461567191548        0.9002393778279846
N        1.3877623903471203       -0.6662251546540764       -0.4439317173724182        0.7282885204173929
O        1.2571643215411779       -0.4919132018484125       -0.4230998893397452       -0.9995816896541723
O        1.0329436213153966       -0.5184696792033814        0.0861962259267479       -0.6779321062001122
N        0.8829873637555553       -1.8294522414207901       -1.0616485291965034        0.0595355401426494
N       -0.5148593529669853        0.8233041514411288       -0.1152429046522022        0.4384454234228979
N       -0.6608582451192304        1.7707457167422751       -0.1211782534710827        0.2898484935097983
O       -0.6227690620612069        1.3569735994506200       -0.1184051164979679       -0.9967426010740905
O       -0.9245390469023335       -0.2960244156916949       -0.3006803845055710       -0.5843046076877909
O       -0.7517385462527537       -0.3949871876378515        0.1969418490347874       -0.8985702780164180
N       -0.7934983699634875        0.2076643192232832       -0.0925604091148973        0.8337443127138764
N       -0.6246292944269404       -0.4891893092411559        0.0286499626863112        0.9929748801195036
N       -2.6795739098793203       -0.1348073372685492        0.7292785876593177        0.9959812136587528
O       -2.6688657933327007       -0.1233686788230289        0.7526399958585421       -0.9061299240166534
O       -1.5179914546206479       -0.4790782810722565        0.2112486504921095       -0.9728480848060479
N       -1.7357302369191119       -0.2831096983652949        0.2506307346499952        0.5966298879502523
N       -1.4089179515179833       -1.8599372668031864        0.5183821109402801        0.6919366737313932
O       -1.3859276115572972       -1.8896643111990281        0.6121548892521190       -0.4993964859338942

        RMSE         4.867274325E-01 kcal/mol
         MAE         2.885069521E-01 kcal/mol
     max. AE         4.879530018E+00 kcal/mol

Coordinates in bohr
s                   x[bohr]                   y[bohr]                   z[bohr]                      q[e]
+        3.4448199223409213        2.3779623491327699        1.9144406907131657        0.0664324048692386
-        5.5892017400184706       -1.2951402915172190        0.4810286115317629       -0.4728962965009700
+        5.7415794024535023       -1.2788545800657973        0.4408366218823349        0.4821530795833855
-        2.9137753878466901       -0.7218408364918389        0.7906315696166303       -0.2968400973681476
+        4.0395514630460321       -0.9754613359610453        0.2503489761017046        0.2532920717159922
+        2.8046105651495470        0.1337933740397255        0.2483518087611788        0.9646971451163958
-        2.9259114298556708        0.0609394353085845       -0.0156040012845430       -0.9889568535212167
+        1.6822802639620247       -0.7416897386520199       -0.1231083943253569        0.9002393778279846
+        2.6224908449667579       -1.2589830801869901       -0.8389093642380194        0.7282885204173929
-        2.3756962624098295       -0.9295812289905551       -0.7995429145636325       -0.9995816896541723
-        1.9519805473247225       -0.9797656980483690        0.1628872600496410       -0.6779321062001122
+        1.6686042897380076       -3.4571636958902490       -2.0062249616765104        0.0595355401426494
+       -0.9729431702380253        1.5558193641761893       -0.2177775276949120        0.4384454234228979
+       -1.2488410910260230        3.3462244424704246       -0.2289937114216557        0.2898484935097983
-       -1.1768629667039301        2.5643084624383832       -0.2237532420340877       -0.9967426010740905
-       -1.7471255909372199       -0.5594050721059841       -0.5682035780128827       -0.5843046076877909
-       -1.4205799703675166       -0.7464176077003611        0.3721661573170094       -0.8985702780164180
+       -1.4994946002282037        0.3924286893616526       -0.1749138232874862        0.8337443127138764
+       -1.1803782964048790       -0.9244338179676809        0.0541405829817143        0.9929748801195036
+       -5.0636608225941320       -0.2547489471397821        1.3781367998367997        0.9959812136587528
-       -5.0434254150015372       -0.2331330154350937        1.4222834632383587       -0.9061299240166534
-       -2.8685881100183694       -0.9053267438816716        0.3992020938026490       -0.9728480848060479
+       -3.2800547754531513       -0.5349997933713833        0.4736234471107845        0.5966298879502523
+       -2.6624690616100586       -3.5147720447906083        0.9796002180138255        0.6919366737313932
-       -2.6190236155531932       -3.5709480172180750        1.1568050870464728       -0.4993964859338942
