1
s                      x[A]                      y[A]                      z[A]                      q[e]
O        1.2012426008123180       -0.4049277304521287        0.0093515558856753       -0.2106845427847927

        RMSE         1.355010768E+00 kcal/mol
         MAE         1.065418834E+00 kcal/mol
     max. AE         7.480357531E+00 kcal/mol

Coordinates in bohr
s                   x[bohr]                   y[bohr]                   z[bohr]                      q[e]
-        2.2700195257679465       -0.7652025111577329        0.0176718794708395       -0.2106845427847927
