2
s                      x[A]                      y[A]                      z[A]                      q[e]
N       -0.6826260551058554       -2.0954604535503645        0.1264714517844834        0.9705438800565910
O       -0.6843232266843728       -2.0491071782303680        0.1321092128668636       -0.9999998361052324

        RMSE         5.299056857E-01 kcal/mol
         MAE         3.850881451E-01 kcal/mol
     max. AE         2.370459180E+00 kcal/mol

Coordinates in bohr
s                   x[bohr]                   y[bohr]                   z[bohr]                      q[e]
+       -1.2899762902517500       -3.9598463639378334        0.2389964065617184        0.9705438800565910
-       -1.2931834797230590       -3.8722513685650966        0.2496502309681816       -0.9999998361052324
