33
s                      x[A]                      y[A]                      z[A]                      q[e]
N        1.5737761768704708        0.8926559494922892       -0.7171816736428062        0.6415522481422433
N        1.9072921952299633        1.1536387859884440       -1.0065396779427229        0.2041244457372261
O        1.6723542669076481        0.8794930087101215       -0.7183593251348342       -0.9849547777395310
N        3.3398508317573428       -0.3517670201336197        0.0440626578682229        0.0624228960628869
O        1.6510906925054707        0.1481210640680637       -0.0551200729076662       -0.9394203533427480
N        1.9787881438496886       -0.3950288951693545       -0.0060133258791950        0.5779580163903716
N        1.6720520640293095        0.3515244265200580       -0.3063337774032002        0.9364237160499815
O        1.8978535613817495       -0.4319773163558665       -0.1792249247747238       -0.4934854832294834
O        1.2979500336715668       -0.3040822982749426        0.3680359283859847       -0.9971157594555390
O        0.9617988427739200       -0.4879832382003166       -0.2024124202981037       -0.5570953521874130
N        0.8049667064186415       -0.4017398689136092        0.0685813311143690        0.9984717837561636
N        1.4252092265505290       -0.5122096342993337        0.4402824931695790        0.6573433013341263
N        0.9522360669744416       -1.4494729589645658        1.0161286670411596        0.4903031910871344
N        0.5786157240669882       -1.3428105249420346        0.8774438760522824        0.1167228626298856
O        0.8893806800647935       -1.3441399068626358        0.9135841915680497       -0.6503804949614047
N       -1.5432073522318293       -1.2879669036852550       -0.2646876162476107        0.4183407774618448
O       -1.3782341646669209       -0.7909617695784650       -0.1755045482752643       -0.5095569166348958
N       -1.0028974666165518       -0.6589908695384891       -0.1004628026042976        0.7659001215763657
O       -1.2837406583186113       -1.0521375584942825       -0.1972483161583131       -0.9998249334348419
N       -0.2291794968515899        0.4699813552459985        0.0099787901182816        0.9736225031603797
O       -0.6695182717675698        0.2443354597188147        0.2357986564756039       -0.4809320263444820
O       -0.4346550364973656        0.4464292816500743       -0.1281910099893242       -0.9615132258117375
N       -0.9973035413855382       -0.1016116603747679       -0.0428255903359886        0.9214097974925028
O       -1.8763349746332296        1.4674329350977193       -0.4799024737289608       -0.0542533898742403
O       -1.9534050218733054        1.3679561332469965        0.1454661355620556       -0.1688099570084477
N       -2.2260831369183971        1.4761578357569003       -0.1030713188715000        0.1933281269058723
N       -0.6465780580737381        0.9785230371844575        0.3178554848212812        0.7613159750025404
O       -0.7970767943679175        0.9112752350651683        0.4019949362585941       -0.9476596935172636
N       -1.1663448779927030        1.1540641710508179        0.0285127792931538        0.7278665168899934
O       -0.8349694966298424        1.0159667544474207       -0.1204816649223502       -0.7631975283092672
O       -0.2552772337107683        1.8438478696708545        0.2930267730791342       -0.8556755530300147
N       -0.2073729416781025        1.7606404874382751        0.2784551063203595        0.6999808054026089
N       -0.2182844667958893        2.2557269815767418        0.3862769651340083        0.2167883597991827

        RMSE         4.634461810E-01 kcal/mol
         MAE         2.734904004E-01 kcal/mol
     max. AE         4.310295140E+00 kcal/mol

Coordinates in bohr
s                   x[bohr]                   y[bohr]                   z[bohr]                      q[e]
+        2.9740059570552684        1.6868752688009425       -1.3552769453823807        0.6415522481422433
+        3.6042598902078740        2.1800613532238149       -1.9020843257182718        0.2041244457372261
-        3.1602915491962564        1.6620009157170257       -1.3575023841735505       -0.9849547777395310
+        6.3114033719039080       -0.6647433280209509        0.0832663557306907        0.0624228960628869
-        3.1201092171278453        0.2799082445000328       -0.1041618418107571       -0.9394203533427480
+        3.7393676521789594       -0.7464964235122709       -0.0113635390148065        0.5779580163903716
+        3.1597204685218716        0.6642848925315342       -0.5788869422690103        0.9364237160499815
-        3.5864234572362741       -0.8163188203228421       -0.3386860226800096       -0.4934854832294834
-        2.4527700881680277       -0.5746322633394189        0.6954871089781216       -0.9971157594555390
-        1.8175364006249828       -0.9221546740126487       -0.3825040387544769       -0.5570953521874130
+        1.5211666152430485       -0.7591783259240505        0.1295999331254969        0.9984717837561636
+        2.6932551096560791       -0.9679359276466510        0.8320133299242611        0.6573433013341263
+        1.7994653733648125       -2.7391069187000028        1.9202048889343180        0.4903031910871344
+        1.0934252503700854       -2.5375441305227033        1.6581286161989783        0.1167228626298856
-        1.6806859065958906       -2.5400562982687749        1.7264239146114129       -0.6503804949614047
+       -2.9162392505110888       -2.4339047066190527       -0.5001871035082658        0.4183407774618448
-       -2.6044851079696270       -1.4947011202107801       -0.3316555300124416       -0.5095569166348958
+       -1.8952015438207679       -1.2453122626050541       -0.1898471827180539        0.7659001215763657
-       -2.4259182603371108       -1.9882518318620597       -0.3727452962469296       -0.9998249334348419
+       -0.4330864826197296        0.8881360454864400        0.0188571803869771        0.9736225031603797
-       -1.2652061696305510        0.4617271016063930        0.4455948814898044       -0.4809320263444820
-       -0.8213789780308977        0.8436290767035164       -0.2422459006256514       -0.9615132258117375
+       -1.8846305571678639       -0.1920182092613469       -0.0809286368960719        0.9214097974925028
-       -3.5457592216746652        2.7730463548114219       -0.9068842422774562       -0.0542533898742403
-       -3.6914005034345054        2.5850624434771192        0.2748911567410066       -0.1688099570084477
+       -4.2066874612758109        2.7895340275291001       -0.1947765640568681        0.1933281269058723
+       -1.2218554484897317        1.8491405477298113        0.6006598137868392        0.7613159750025404
-       -1.5062568423132308        1.7220606191853720        0.7596603333496196       -0.9476596935172636
+       -2.2040723872367338        2.1808652144895624        0.0538813439396857        0.7278665168899934
-       -1.5778636717417853        1.9198989184758890       -0.2276773498424211       -0.7631975283092672
-       -0.4824040577778427        3.4843674906867741        0.5537403485462425       -0.8556755530300147
+       -0.3918780656021528        3.3271283266509135        0.5262038891807205        0.6999808054026089
+       -0.4124978596858238        4.2627062089856977        0.7299576726762981        0.2167883597991827
