3
s                      x[A]                      y[A]                      z[A]                      q[e]
N        0.4882774006014737       -0.4318844605261765       -0.1909820989536592        0.6545907436559852
O        0.7770032040960161       -0.6224825900741541       -0.2809233929343393       -0.9999999999806131
N        1.0008933245747647       -1.2500205459817939       -0.6565708112639558        0.3572309108074273

        RMSE         3.555957174E-01 kcal/mol
         MAE         2.443599953E-01 kcal/mol
     max. AE         3.424803567E+00 kcal/mol

Coordinates in bohr
s                   x[bohr]                   y[bohr]                   z[bohr]                      q[e]
+        0.9227105603872428       -0.8161433482355758       -0.3609038618875020        0.6545907436559852
-        1.4683232543446825       -1.1763216131057848       -0.5308682748802761       -0.9999999999806131
+        1.8914142642452743       -2.3621964831008544       -1.2407390152585380        0.3572309108074273
