4
s                      x[A]                      y[A]                      z[A]                      q[e]
N        0.5812782851799705       -0.2267775994215807       -0.0968449192696110        0.7983167600660068
O        0.7758055732702048       -0.3561662756859963       -0.1528875261988595       -0.9999995648881257
O        1.0038990687804565       -1.1883564692117083       -1.0968398728486548       -0.7864955343552787
N        1.0026735977332080       -1.2149242642030489       -1.0178221396550748        0.9999999936601971

        RMSE         2.717289289E-01 kcal/mol
         MAE         1.831197766E-01 kcal/mol
     max. AE         2.536863356E+00 kcal/mol

Coordinates in bohr
s                   x[bohr]                   y[bohr]                   z[bohr]                      q[e]
+        1.0984567616659162       -0.4285475542955710       -0.1830103740616382        0.7983167600660068
-        1.4660600600844933       -0.6730567161708425       -0.2889155525146029       -0.9999995648881257
-        1.8970942975972140       -2.2456682662261866       -2.0727269631659455       -0.7864955343552787
+        1.8947784929432361       -2.2958741225171302       -1.9234050883755809        0.9999999936601971
