8
s                      x[A]                      y[A]                      z[A]                      q[e]
N        0.7747718460709193       -0.0751042660067910       -0.0698840017207424        0.3938578455623619
N        1.3783610103620094       -0.7546760900456225       -0.3073446967927792        0.4012981124560770
N        0.4048752994859184       -0.8932982947687907       -0.2054603478688572        0.1209705499153388
O        1.1025458985011263       -0.4609675882623872       -0.1969177956397463       -0.9999996009012018
O        1.1887233409152842       -1.2584009859753447       -1.0480210613286776       -0.0710790924608069
N        1.0972429087340108       -1.2585114193421325       -0.6252545541117546        0.5789944720739080
N        0.9728404829429042       -1.8171993540339468       -1.0206189130235919        0.0629556798530467
O        1.0826873787668549       -1.3149388430389901       -0.5275122755023970       -0.4751763120159243

        RMSE         1.047537356E-01 kcal/mol
         MAE         6.603520928E-02 kcal/mol
     max. AE         1.167096955E+00 kcal/mol

Coordinates in bohr
s                   x[bohr]                   y[bohr]                   z[bohr]                      q[e]
+        1.4641065987894073       -0.1419264936063672       -0.1320616238032268        0.3938578455623619
+        2.6047248115935373       -1.4261311236175773       -0.5807973030502296        0.4012981124560770
+        0.7651034309911025       -1.6880891254515118       -0.3882637871134330        0.1209705499153388
-        2.0835097889139531       -0.8711024945287204       -0.3721207029879942       -0.9999996009012018
-        2.2463615532691250       -2.3780332194994989       -1.9804727796228430       -0.0710790924608069
+        2.0734885906079996       -2.3782419083178401       -1.1815598659664679        0.5789944720739080
+        1.8384020765202167       -3.4340090944830384       -1.9286902240770525        0.0629556798530467
-        2.0459826253591809       -2.4848742850700702       -0.9968537285165872       -0.4751763120159243
