2
s                      x[A]                      y[A]                      z[A]                      q[e]
O       -1.0866004464035564       -0.1019727343712706       -0.1486632466508590       -0.3474479484424298
N       -0.6433186725013836        0.2832654211670857       -0.1529357852753797        0.6527196730278552

        RMSE         1.163357964E+00 kcal/mol
         MAE         8.869110331E-01 kcal/mol
     max. AE         6.199037864E+00 kcal/mol

Coordinates in bohr
s                   x[bohr]                   y[bohr]                   z[bohr]                      q[e]
-       -2.0533772515029391       -0.1927005402257615       -0.2809328210915093       -0.3474479484424298
+       -1.2156961024207131        0.5352940668182568       -0.2890067489522936        0.6527196730278552
