3
s                      x[A]                      y[A]                      z[A]                      q[e]
N       -2.7135367400993964       -0.1975377283398458        0.3857362848538771        0.4033026485577024
N       -2.2098512120968046       -0.1536400514452317        0.2530048991687893        0.5409318635281402
O       -2.3901506243089901       -0.2501021402192707        0.2934218322997593       -0.9999999982314576

        RMSE         2.027868412E-01 kcal/mol
         MAE         1.337499448E-01 kcal/mol
     max. AE         1.186201225E+00 kcal/mol

Coordinates in bohr
s                   x[bohr]                   y[bohr]                   z[bohr]                      q[e]
+       -5.1278412701554981       -0.3732922060073978        0.7289359350254143        0.4033026485577024
+       -4.1760135688739801       -0.2903376191327390        0.4781099678280846        0.5409318635281402
-       -4.5167300785360371       -0.4726245484052729        0.5544869022765608       -0.9999999982314576
