3
s                      x[A]                      y[A]                      z[A]                      q[e]
N       -0.5828238328546850        0.8086187554591556       -0.0962214676429948        0.5576332322887937
N       -0.6647937740714499        1.7843069064970998       -0.1331531364360098        0.2205223871132179
O       -0.6295822902031647        1.3270884424719440       -0.1188791636149455       -0.9999999999404640

        RMSE         3.287587946E-01 kcal/mol
         MAE         2.436328929E-01 kcal/mol
     max. AE         1.776332247E+00 kcal/mol

Coordinates in bohr
s                   x[bohr]                   y[bohr]                   z[bohr]                      q[e]
+       -1.1013774234849647        1.5280679877263612       -0.1818322212348623        0.5576332322887937
+       -1.2562781629045279        3.3718513770424074       -0.2516229606097784        0.2205223871132179
-       -1.1897381019224924        2.5078337005323705       -0.2246490612557382       -0.9999999999404640
