2
s                      x[A]                      y[A]                      z[A]                      q[e]
N       -1.6937458909589915       -1.9314214226950743        0.1678390193329970        0.9190519444381337
O       -1.7235903930177006       -1.8337057183448238        0.1493653620389438       -0.9999995349354601

        RMSE         2.474697596E-01 kcal/mol
         MAE         1.833252263E-01 kcal/mol
     max. AE         1.669054736E+00 kcal/mol

Coordinates in bohr
s                   x[bohr]                   y[bohr]                   z[bohr]                      q[e]
+       -3.2007158600320520       -3.6498575217358091        0.3171697797047860        0.9190519444381337
-       -3.2571137952736744       -3.4652016023576273        0.2822596268834590       -0.9999995349354601
