18
s                      x[A]                      y[A]                      z[A]                      q[e]
N        1.8188655657402002        0.8410178822520716       -0.8520076140290548        0.2106850657158396
O        1.9195461118997061        0.0600321566462351       -0.1409209124024687       -0.4146709765659375
N        2.8636104232138999       -0.2740737923400249        0.0864082328814595        0.2051053067596429
N        0.4872798235315483       -0.3076736091760055        0.1616573118229746        0.4781404408969744
N        1.3538857238033000       -0.7126809661147444        0.4114653151663285        0.5111637699693325
O        1.1135516622263735       -0.4562395572782836        0.2478929307299708       -0.9972672406067065
N        0.9268486284593868       -1.5991390006979114        1.1731881822585359        0.0636251630865294
N       -1.5516471887679448       -1.3290802995070878       -0.3345023022558519        0.3950440376457338
O       -1.1010339582421047       -0.8950192031379780       -0.3180297219171228       -0.4861064147059175
N       -0.9567728483135720       -0.6892789585423238       -0.2361775319465593        0.7528405744912325
O       -1.3684250996884129       -1.0453927765556477       -0.2374263207799213       -0.9970347947555299
O       -0.4728252613147879        0.2371164107193277       -0.0453635099695285       -0.9986728668406755
N       -0.0297714732112625        0.3813628741118996        0.0505529494691793        0.5760487935928906
N       -0.9525898891956136       -0.2114313782418706       -0.0905884264298307        0.8925124419929854
N       -2.1759893771126295        1.4564173654290538       -0.1329189315407463        0.1349271836502990
O       -0.9472440081197226        0.8542480305373945        0.4817808249581063       -0.2527581607045901
O       -0.7510352356900341        0.9767774294425537       -0.3255150742883524       -0.2067064030413881
N       -0.1757736121419110        2.1570265041661965        0.3999848001697872        0.1331240794192848

        RMSE         4.953944772E-01 kcal/mol
         MAE         2.961197919E-01 kcal/mol
     max. AE         4.387370511E+00 kcal/mol

Coordinates in bohr
s                   x[bohr]                   y[bohr]                   z[bohr]                      q[e]
+        3.4371577782748890        1.5892934640689553       -1.6100610473196943        0.2106850657158396
-        3.6274164366778705        0.1134443347819672       -0.2663019297902992       -0.4146709765659375
+        5.4114394298806543       -0.5179244056882487        0.1632878951307381        0.2051053067596429
+        0.9208254129360469       -0.5814188573737989        0.3054880455231578        0.4781404408969744
+        2.5584732231554774       -1.3467718407835576        0.7775567557895501        0.5111637699693325
-        2.1043076681561690       -0.8621678108560858        0.4684497475167335       -0.9972672406067065
+        1.7514900675444591       -3.0219347478573670        2.2170043580923355        0.0636251630865294
+       -2.9321882301079798       -2.5115977648098591       -0.6321177395986742        0.3950440376457338
-       -2.0806526359063486       -1.6913411709562840       -0.6009890741788749       -0.4861064147059175
+       -1.8080386475868568       -1.3025484556857925       -0.4463108523655640        0.7528405744912325
-       -2.5859486616134268       -1.9755060412221050       -0.4486707212491481       -0.9970347947555299
-       -0.8935102490829793        0.4480850761111021       -0.0857246099318846       -0.9986728668406755
+       -0.0562599307206907        0.7206713864889416        0.0955312293308576        0.5760487935928906
+       -1.8001340004599287       -0.3995473992052187       -0.1711873160885655        0.8925124419929854
+       -4.1120239746484426        2.7522299450217438       -0.2511803775004888        0.1349271836502990
-       -1.7900317493272271        1.6142948209274111        0.9104338116679583       -0.2527581607045901
-       -1.4192509060228349        1.8458418271751342       -0.6151343401130454       -0.2067064030413881
+       -0.3321639870306605        4.0761893382278300        0.7558617266668756        0.1331240794192848
