19
s                      x[A]                      y[A]                      z[A]                      q[e]
N        1.7962626367784045        0.8407436310769011        0.7568355276799161        0.2069901357578900
N        2.8218221151991538       -0.4785102907792054        0.0945679618818840        0.1971167716290227
O        1.9124828474290669       -0.0461266721774875        0.1819741329560430       -0.4020827826992601
N        0.8735397138418947       -0.3818501418497108       -0.0658040649805956        0.8776142805243953
N        1.3622767252391008       -0.6880423324526145       -0.4415738684819145        0.7418893000927713
O        1.2155540672797369       -0.5030450967140327       -0.4320561072350972       -0.9935465772698162
O        1.0233548388184186       -0.5148629430665824        0.0858297713494541       -0.6833317214367953
N        0.8913508494658987       -1.8424729065006864       -1.0462398132840147        0.0610693061472832
N       -0.5203228887127901        0.8373980129997112       -0.1108717866245171        0.4404409986977971
N       -0.6544233702467543        1.7509482270285526       -0.1226358688226133        0.2887978674003271
O       -0.6241572148039083        1.3539457076502492       -0.1187302903225566       -0.9906948381357733
O       -0.9421632313567230       -0.2829442639466269       -0.2969221048946753       -0.5749253092733696
O       -0.7594205402809080       -0.3952394544781615        0.2007128824094870       -0.8756320726232376
N       -0.8057105938765022        0.2117189252577442       -0.0943738674705758        0.8074513302697185
N       -0.6329450573674384       -0.4847680869609441        0.0282170510602563        0.9862734496927700
N       -2.8453486198101370       -0.4222211732555186        0.5644027547895740        0.0681861563093854
O       -1.4832355887169542       -0.6558268314831214        0.1893668705479663       -0.5240229422485735
N       -1.5027542863402445       -1.8122039394784195        0.2506273667966736        0.2009751791541055
N       -2.2222118518489364       -0.0801291519701501        0.3171901361414521        0.1674314680113596

        RMSE         4.987885603E-01 kcal/mol
         MAE         2.949434600E-01 kcal/mol
     max. AE         4.505793174E+00 kcal/mol

Coordinates in bohr
s                   x[bohr]                   y[bohr]                   z[bohr]                      q[e]
+        3.3944444329039163        1.5887752044582979        1.4302118693313988        0.2069901357578900
+        5.3324709724865098       -0.9042533977858865        0.1787075481994962        0.1971167716290227
-        3.6140688012766855       -0.0871667774942268        0.3438812732045708       -0.4020827826992601
+        1.6507508188719835       -0.7215921890631760       -0.1243516607551560        0.8776142805243953
+        2.5743299177874643       -1.3002115710566460       -0.8344536755897529        0.7418893000927713
-        2.2970642778450414       -0.9506174615439675       -0.8164677135057721       -0.9935465772698162
-        1.9338603745288505       -0.9729499545430271        0.1621947612611352       -0.6833317214367953
+        1.6844089871847365       -3.4817691868625653       -1.9771067086569225        0.0610693061472832
+       -0.9832677564742456        1.5824529025720282       -0.2095173117605358        0.4404409986977971
+       -1.2366809398654528        3.3088126089399204       -0.2317482052323114        0.2887978674003271
-       -1.1794861952079390        2.5585865761981630       -0.2243677315057280       -0.9906948381357733
-       -1.7804304727405675       -0.5346871676283762       -0.5611014588453976       -0.5749253092733696
-       -1.4350968351781308       -0.7468943229390818        0.3792923776051524       -0.8756320726232376
+       -1.5225723588065683        0.4000907843134124       -0.1783407629196418        0.8074513302697185
+       -1.1960928108866522       -0.9160789187183085        0.0533224985719438        0.9862734496927700
+       -5.3769296228905894       -0.7978823818224096        1.0665666310062263        0.0681861563093854
-       -2.8029090422072507       -1.2393330972298831        0.3578515225706824       -0.5240229422485735
+       -2.8397940350408941       -3.4245691290899662        0.4736170827903758        0.2009751791541055
+       -4.1993717927409557       -0.1514221518887733        0.5994024870040273        0.1674314680113596
