10
s                      x[A]                      y[A]                      z[A]                      q[e]
N        2.2805492714299458       -0.8675447114283029        0.1196465572378728        0.4501965005896335
N        2.7421087999580154       -1.0742245407392979        0.0890157321624089        0.4606009343378758
O        2.5313728375333606       -0.9165811995847398        0.1057916625525975       -0.9967010948393888
N       -2.4249665066899246       -0.0734088466977570       -1.0938220490215151        0.2292115727743917
O       -2.5742162658518981       -0.1416998514201182       -0.6998866145605732       -0.0991736654308845
O       -2.0676362698207797       -0.0948897207491572       -0.9211006531878877       -0.2389865582230908
O        2.1903701062279359        0.1286423864225816        0.9295633480522281       -0.1616192157129251
N        1.9793603787841167        0.4709865463521472        0.9144640432608162        0.2049086769732289
N       -1.7353612483291323       -1.6810058368012242        0.0686916886983654        0.9552097589304814
O       -1.7474941550991749       -1.6248372657592807        0.0740734394918830       -0.9794072839782585

        RMSE         2.235767132E-01 kcal/mol
         MAE         1.509401661E-01 kcal/mol
     max. AE         1.713254861E+00 kcal/mol

Coordinates in bohr
s                   x[bohr]                   y[bohr]                   z[bohr]                      q[e]
+        4.3096135386149843       -1.6394219061888364        0.2260992250334936        0.4501965005896335
+        5.1818346381284748       -2.0299901792429882        0.1682153546440608        0.4606009343378758
-        4.7836013843611056       -1.7320874389587586        0.1999172685812620       -0.9967010948393888
+       -4.5825225610521558       -0.1387226154444800       -2.0670241026377703        0.2292115727743917
-       -4.8645637301588263       -0.2677739112020899       -1.3225940203933484       -0.0991736654308845
-       -3.9072662770244984       -0.1793155843370801       -1.7406279685054218       -0.2389865582230908
-        4.1391996141607690        0.2430988784639938        1.7566201440823435       -0.1616192157129251
+        3.7404490194844482        0.8900355813808069        1.7280865933417620        0.2049086769732289
+       -3.2793574880746710       -3.1766406468503714        0.1298084787351172        0.9552097589304814
-       -3.3022853589757650       -3.0704974307227770        0.1399785138103310       -0.9794072839782585
