3
s                      x[A]                      y[A]                      z[A]                      q[e]
O        2.6237098685748959       -0.5849213094839769        0.2284178103489398       -0.1111656655418482
O       -2.1789195883189776       -0.1846855637904830       -0.5220423092701625       -0.1153230852172892
N        1.8955053187427320        0.8442307540581702        0.9111413786387891        0.0507283761802009

        RMSE         1.587114196E+00 kcal/mol
         MAE         1.218669930E+00 kcal/mol
     max. AE         7.929754143E+00 kcal/mol

Coordinates in bohr
s                   x[bohr]                   y[bohr]                   z[bohr]                      q[e]
-        4.9580930842675057       -1.1053410798688750        0.4316471037362630       -0.1111656655418482
-       -4.1175612713181877       -0.3490051348897839       -0.9865169904221613       -0.1153230852172892
+        3.5819859217724086        1.5953649118586866        1.7218076671993829        0.0507283761802009
