4
s                      x[A]                      y[A]                      z[A]                      q[e]
N        2.6596353873446996       -1.2423292938695831        0.2302892678660898        0.0125726786538554
O       -2.1943710217429708       -0.1733054281951904       -0.5146354647484557       -0.1111477040994175
O        2.1764091144005429        0.2181928445928019        0.6097086209721939       -0.9999999956243857
N        2.1153188796641573        0.3647044308046087        0.6849884536816324        0.9228146464910114

        RMSE         1.323790385E+00 kcal/mol
         MAE         9.086506447E-01 kcal/mol
     max. AE         7.681278556E+00 kcal/mol

Coordinates in bohr
s                   x[bohr]                   y[bohr]                   z[bohr]                      q[e]
+        5.0259824756574289       -2.3476621230469270        0.4351836458991059        0.0125726786538554
-       -4.1467602487352799       -0.3274997953441070       -0.9725200828222877       -0.1111477040994175
-        4.1128171631672412        0.4123247188149776        1.1521823099680195       -0.9999999956243857
+        3.9973733505755416        0.6891914909616959        1.2944405765591402        0.9228146464910114
