5
s                      x[A]                      y[A]                      z[A]                      q[e]
O        2.6458734861608124       -0.5854188071132905        0.2316209313013252       -0.1098249356007590
N       -2.5834897864176947       -0.0409272485143215       -0.9803187464362068        0.2278813241555156
O       -2.6646318504231505       -0.1306837240180816       -0.6047477900278133       -0.1850071196244571
O       -2.0655018881113194       -0.0094267615176909       -0.9446132446112270       -0.1650370012950279
N        1.8534736369853479        0.8139926778196556        0.8649287328130161        0.0562273577857919

        RMSE         1.217384078E+00 kcal/mol
         MAE         8.776951004E-01 kcal/mol
     max. AE         6.809867065E+00 kcal/mol

Coordinates in bohr
s                   x[bohr]                   y[bohr]                   z[bohr]                      q[e]
-        4.9999762514542683       -1.1062812141363421        0.4377001250829871       -0.1098249356007590
+       -4.8820881442469819       -0.0773412907606184       -1.8525339464165680        0.2278813241555156
-       -5.0354244224716638       -0.2469564474490895       -1.1428076981284438       -0.1850071196244571
-       -3.9032328801464322       -0.0178139975184410       -1.7850603267953216       -0.1650370012950279
+        3.5025575546585506        1.5382232292071800        1.6344784230558900        0.0562273577857919
