6
s                      x[A]                      y[A]                      z[A]                      q[e]
O        2.6488614338514855       -0.5336123608920532        0.1281205410253020       -0.0103098694608793
N       -2.3482527496201473       -0.3797324028613180       -0.9477462055456085        0.4926104718607828
O       -2.2021885301537756       -0.4252676967673389       -0.7602279348673316       -0.6760427831523352
O        2.1757781286428464        0.2055357293933362        0.6245686681009923       -0.7183244663413788
N        2.0699133118084783        0.3721347752665531        0.6936521757371985        0.6821326882111721
N       -1.6312340845989446       -1.8854961518709037       -0.2632677938247914        0.0541735843037020

        RMSE         5.567654511E-01 kcal/mol
         MAE         3.733777910E-01 kcal/mol
     max. AE         4.134950965E+00 kcal/mol

Coordinates in bohr
s                   x[bohr]                   y[bohr]                   z[bohr]                      q[e]
-        5.0056226542668352       -1.0083812192449439        0.2421127335833047       -0.0103098694608793
+       -4.4375545701353722       -0.7175902423699096       -1.7909807649230611        0.4926104718607828
-       -4.1615331986151638       -0.8036394768945179       -1.4366225898216487       -0.6760427831523352
-        4.1116247728961302        0.3884062375496179        1.1802637292528444       -0.7183244663413788
+        3.9115692627574168        0.7032328070125830        1.3108126384712486        0.6821326882111721
+       -3.0825856664039106       -3.5630713376406478       -0.4975040279823535        0.0541735843037020
