7
s                      x[A]                      y[A]                      z[A]                      q[e]
O        2.5376524292815361       -0.5410036718130831        0.0828687032886952       -0.0377620431280782
N       -2.2979530247802762       -0.0892640383433734       -1.0742733971168770        0.8574780546087620
O       -2.2324438712582504       -0.1051249077647385       -0.9925110530375134       -0.9721253871469434
O        2.2465764762799041        0.1852528321836435        0.7158023289231005       -0.3014328670059691
N        2.0341966895764272        0.5031800405150220        0.8279872514416914        0.2917061782095968
N       -1.8330212438600229       -1.6752528161378928        0.0594010667526818        0.6842846632356633
O       -1.8597741239199141       -1.6052642388306355        0.0730093891218817       -0.6979089733519679

        RMSE         5.329368287E-01 kcal/mol
         MAE         3.513600003E-01 kcal/mol
     max. AE         3.848516113E+00 kcal/mol

Coordinates in bohr
s                   x[bohr]                   y[bohr]                   z[bohr]                      q[e]
-        4.7954680929448426       -1.0223487725937959        0.1565991535874604       -0.0377620431280782
+       -4.3425018660021282       -0.1686845853213421       -2.0300825044160948        0.8574780546087620
-       -4.2187075071349280       -0.1986572846393709       -1.8755740667306493       -0.9721253871469434
-        4.2454142600651235        0.3500771167924859        1.3526703616295406       -0.3014328670059691
+        3.8440746286124021        0.9508724683701654        1.5646691405953841        0.2917061782095968
+       -3.4639081330414898       -3.1657690134025755        0.1122517477226073        0.6842846632356633
-       -3.5144637494219060       -3.0335097703814267        0.1379677500273364       -0.6979089733519679
