9
s                      x[A]                      y[A]                      z[A]                      q[e]
N        2.7910285005617541       -1.0294045838554959        0.0804563484643409        0.8873962790134062
O        2.7530940871437566       -0.9641323351562543        0.0817145274219492       -0.9895721334317076
N       -2.3322247152422162       -0.1864045663644327       -1.0421122998387258        0.8641438110856496
O       -2.2599046075691129       -0.2041871257602903       -0.9532228953153734       -0.9933729677833928
O        2.3892855626147056        0.5195564769622328        0.6508651545712096       -0.1827981152218555
O        2.2482478836802140        0.1821448212042577        0.8892146929339032       -0.7088348324060056
N        2.2099987975241389        0.3110331513400652        0.8256342463496822        0.9486864231133130
N       -1.8186732704148756       -1.6386981987034310        0.0733775453507716        0.9868575258388330
O       -1.8350356721767154       -1.5945167727153955        0.0881546784661359       -0.9882663647871768

        RMSE         2.518187061E-01 kcal/mol
         MAE         1.700621929E-01 kcal/mol
     max. AE         2.091555869E+00 kcal/mol

Coordinates in bohr
s                   x[bohr]                   y[bohr]                   z[bohr]                      q[e]
+        5.2742794744089352       -1.9452927357777745        0.1520404636520037        0.8873962790134062
-        5.2025938223190273       -1.8219460621434367        0.1544180772986976       -0.9895721334317076
+       -4.4072659748316596       -0.3522535789635061       -1.9693068386661816        0.8641438110856496
-       -4.2706007779658730       -0.3858577460313636       -1.8013302086620135       -0.9933729677833928
-        4.5150953488522143        0.9818194481663596        1.2299568867433623       -0.1827981152218555
-        4.2485727622957725        0.3442038272465308        1.6803722363781572       -0.7088348324060056
+        4.1762924649117501        0.5877674719707997        1.5602226053996788        0.9486864231133130
+       -3.4367943927748197       -3.0966907978305569        0.1386634644713197        0.9868575258388330
-       -3.4677148508594056       -3.0132000028809847        0.1665881989787915       -0.9882663647871768
