1
s                      x[A]                      y[A]                      z[A]                      q[e]
O       -2.0822699301778855       -0.1988240233640827       -0.5984357054017940       -0.1035867729380974

        RMSE         2.361341559E+00 kcal/mol
         MAE         1.816358925E+00 kcal/mol
     max. AE         9.411613372E+00 kcal/mol

Coordinates in bohr
s                   x[bohr]                   y[bohr]                   z[bohr]                      q[e]
-       -3.9349198873123976       -0.3757229513197448       -1.1308795869045545       -0.1035867729380974
