2
s                      x[A]                      y[A]                      z[A]                      q[e]
O        2.0206541632520216        0.2467555295043536       -0.0190190814960815       -0.7899236742456377
N        2.0772515056906569        0.0099923040541880       -0.0153235853295188        0.9999999899167882

        RMSE         2.221944424E-01 kcal/mol
         MAE         1.561939689E-01 kcal/mol
     max. AE         1.609599767E+00 kcal/mol

Coordinates in bohr
s                   x[bohr]                   y[bohr]                   z[bohr]                      q[e]
-        3.8184829628124723        0.4663003707055570       -0.0359408551853568       -0.7899236742456377
+        3.9254364394502450        0.0188827180247172       -0.0289573795328740        0.9999999899167882
