1
s                      x[A]                      y[A]                      z[A]                      q[e]
N       -2.0456834151390764       -0.0538167431254543       -0.2116324349086576        0.0766542287852517

        RMSE         1.830239976E+00 kcal/mol
         MAE         1.489899680E+00 kcal/mol
     max. AE         7.999152307E+00 kcal/mol

Coordinates in bohr
s                   x[bohr]                   y[bohr]                   z[bohr]                      q[e]
+       -3.8657813940041046       -0.1016989054712240       -0.3999273412411436        0.0766542287852517
