18
s                      x[A]                      y[A]                      z[A]                      q[e]
N       -2.1453182859396969        1.5242988426079178        0.0013898710337006        0.0706521626669691
O       -1.9135340607088100       -0.2851112508999386        0.3701929790572004       -0.3142892233222908
N       -2.0366144414022798       -0.4036306512816769        0.0032483966450963        0.5767925764043413
N       -3.2619891308817968       -0.6338885698049140       -0.0152988714608296        0.0631315721663137
O       -1.8724417234811157       -0.3269347423104133       -0.3090806462771604       -0.4171695808444903
O       -0.8244735271924213       -0.3886955171502632        0.0847520361960047       -0.9790381764348823
N       -0.6547265884852101       -0.2383842597133228        0.0942195382801866        0.7748488609916946
O       -0.8711840207571200       -1.5033229730378987       -0.3612760852128176       -0.7811792142597455
N       -0.8809730822031783       -1.4936952043716676       -0.2818078010708169        0.9970932933165109
O        1.2564261875992206       -0.7610685526378452        0.0404491853835029       -0.6783359871658639
N        0.0042551068832231        0.3113603724287635        0.1312176508168934        0.7602445532485013
O        0.2500670768209466        0.2578675197423004        0.1712337455688428       -0.9806612268455768
N        0.8215320500412286       -0.3393773591322298        0.0678265508631883        0.9657848573411684
N        2.2566384897559963        1.6959593469210354        0.0133248797109770        0.0664224298083262
N        1.0512179120420935        1.1377311188925241        0.0200309474621211        0.9648562351994004
O        0.9061028845290985        1.1064972350886924       -0.3528612115742847       -0.6347187483230561
O        0.9561826459373012        1.1632906573512343        0.3843515889387336       -0.5683874505659180
N       -0.2051235464149922        2.1836664272595843       -0.0111870613467510        0.1139530666185983

        RMSE         5.162847099E-01 kcal/mol
         MAE         2.947407067E-01 kcal/mol
     max. AE         4.979651267E+00 kcal/mol

Coordinates in bohr
s                   x[bohr]                   y[bohr]                   z[bohr]                      q[e]
+       -4.0540640123626526        2.8805073458813122        0.0026264756034011        0.0706521626669691
-       -3.6160553064748440       -0.5387821794875756        0.6995633439854542       -0.3142892233222908
+       -3.8486435174025893       -0.7627513867625431        0.0061385800060880        0.5767925764043413
+       -6.1642660815868062       -1.1978757909894442       -0.0289106770895508        0.0631315721663137
-       -3.5384020432595467       -0.6178171238638108       -0.5840777721433399       -0.4171695808444903
-       -1.5580291640838837       -0.7345280736071937        0.1601581369853375       -0.9790381764348823
+       -1.2372539392923780       -0.4504809634781902        0.1780491230166426        0.7748488609916946
-       -1.6462992041061244       -2.8408686971506514       -0.6827128567297899       -0.7811792142597455
+       -1.6647978492644528       -2.8226748511722102       -0.5325395640413452        0.9970932933165109
-        2.3743013914156257       -1.4382111271841125        0.0764378823726923       -0.6783359871658639
+        0.0080409866438421        0.5883858302109136        0.2479654228698863        0.7602445532485013
-        0.4725582881854125        0.4872989889640374        0.3235848825614409       -0.9806612268455768
+        1.5524705778638377       -0.6413302619410586        0.1281736051658611        0.9657848573411684
+        4.2644287098056042        3.2048986855910768        0.0251803733084163        0.0664224298083262
+        1.9865139519351731        2.1500002191175693        0.0378530047368435        0.9648562351994004
-        1.7122862932473351        2.0909767328939544       -0.6668110501726281       -0.6347187483230561
-        1.8069233267371105        2.1983007466976381        0.7263192389787528       -0.5683874505659180
+       -0.3876273246069721        4.1265314968775924       -0.0211404820940549        0.1139530666185983
