4
s                      x[A]                      y[A]                      z[A]                      q[e]
O        0.5112332600923396        1.1087709727445607        0.0269867756444686       -0.6655626081610559
O        0.4203186623588814       -0.2951970643971576        0.1087589608704521       -0.9999999828264411
N        0.5905414802254472        0.4845205972728812        0.0553391057948603        0.9999999966584130
N        0.2299106109506039       -0.4543564529955267        0.0992417826111068        0.8226158332974030

        RMSE         3.861411590E-01 kcal/mol
         MAE         2.688486812E-01 kcal/mol
     max. AE         3.076186320E+00 kcal/mol

Coordinates in bohr
s                   x[bohr]                   y[bohr]                   z[bohr]                      q[e]
-        0.9660908477994711        2.0952734743446859        0.0509976149772213       -0.6655626081610559
-        0.7942871572770660       -0.5578416047497656        0.2055246497345390       -0.9999999828264411
+        1.1159616633485649        0.9156112309889944        0.1045757539800221        0.9999999966584130
+        0.4344680880333269       -0.8586092594959984        0.1875397893372150        0.8226158332974030
