6
s                      x[A]                      y[A]                      z[A]                      q[e]
N        0.2440869821787846        0.4398447255759377        0.0050907878723419        0.6320182199113225
O        0.4591145421839406        0.9683584763710705       -0.0254379639360377       -0.9770485807689446
O        0.3417961359980057        0.8823807930543653        0.1350411736414901       -0.0146872861585919
O        0.5373449335768965       -0.2561278495626259       -0.0839967961611720       -0.9999999986609445
N        0.6788760367961989        0.4346285670390189       -0.0567097717627775        0.9674014440463008
N        0.3621184399700336       -0.5913829125581996       -0.0815280649948250        0.5493694405991767

        RMSE         3.052792669E-01 kcal/mol
         MAE         1.952697523E-01 kcal/mol
     max. AE         2.388507391E+00 kcal/mol

Coordinates in bohr
s                   x[bohr]                   y[bohr]                   z[bohr]                      q[e]
+        0.4612575471074086        0.8311860690656785        0.0096201948415284        0.6320182199113225
-        0.8676007449426026        1.8299323116069490       -0.0480707850283845       -0.9770485807689446
-        0.6459010877759683        1.6674580372370316        0.2551908338428109       -0.0146872861585919
-        1.0154347593626627       -0.4840114887758265       -0.1587309401605226       -0.9999999986609445
+        1.2828897826810470        0.8213289580039330       -0.1071659372688712        0.9674014440463008
+        0.6843046765214047       -1.1175517400105721       -0.1540657143787447        0.5493694405991767
