8
s                      x[A]                      y[A]                      z[A]                      q[e]
N        0.7278000457178432        0.8925466574722986       -0.0858008829241725        0.9999999948381415
O        0.7207229810635347        1.0015267749110077       -0.0985765898933123       -0.8239917816950386
N        0.5067577902602907        1.7842839868538556       -0.0064357663523595        0.3004230678793490
O        0.5004030534044930        1.3889161109976043        0.0024301336665247       -0.8801993993792271
N        0.5474778533313382       -0.3978629299761535       -0.0825647995022968        0.8953032486864562
O        0.6532205620211313       -0.2221524144848272       -0.2433081521730100       -0.9999870909131459
O        0.7763592994844851       -0.2569833075567546        0.4111232390192026       -0.3344776276935139
N        0.5991845443125325        0.3369648195793868       -0.0132347919566831        0.9999828272452976

        RMSE         6.774090824E-02 kcal/mol
         MAE         4.407048395E-02 kcal/mol
     max. AE         7.128109147E-01 kcal/mol

Coordinates in bohr
s                   x[bohr]                   y[bohr]                   z[bohr]                      q[e]
+        1.3753427605024100        1.6866687368154620       -0.1621401700491573        0.9999999948381415
-        1.3619690465336092        1.8926113118948529       -0.1862827572799343       -0.8239917816950386
+        0.9576334355341497        3.3718080651937830       -0.0121618358133962        0.3004230678793490
-        0.9456247232773392        2.6246710610214574        0.0045922870779864       -0.8801993993792271
+        1.0345832025497990       -0.7518519731271357       -0.1560248586626778        0.8953032486864562
-        1.2344079617375774       -0.4198072214855140       -0.4597857716982058       -0.9999870909131459
-        1.4671064509779697       -0.4856280700965633        0.7769103255574303       -0.3344776276935139
+        1.1322946873579365        0.6367712229193507       -0.0250101321255432        0.9999828272452976
