6
s                      x[A]                      y[A]                      z[A]                      q[e]
O       -0.3286767208698096       -0.0000076196575584        0.5026786800868741       -0.2164963960462509 
O        0.3286601388556021       -0.0000058957528169        0.5026928138073631       -0.2164883633228883 
N       -0.0000092168578121        1.0024569853317551       -0.1475664681548008        0.0984168264233307 
N       -0.0000162250853856        1.0006029416232221       -0.7904829266651091        0.1180711157196716 
N       -0.0000058809322792       -1.0024000608638064       -0.1475240684949500        0.0984154127838881 
N       -0.0000191407321851       -1.0006221745314046       -0.7904687693600400        0.1180814044422489 

        RMSE         8.180429321e-01 kcal/mol
         MAE         5.891815660e-01 kcal/mol
     max. AE         9.161386123e+00 kcal/mol

Coordinates in bohr
s                   x[bohr]                   y[bohr]                   z[bohr]                      q[e]
-       -0.6211089412755072       -0.0000143990649123        0.9499249656753113       -0.2164963960462509 
-        0.6210776058123159       -0.0000111413573205        0.9499516745342349       -0.2164883633228883 
+       -0.0000174173357408        1.8943690176350265       -0.2788601899180413        0.0984168264233307 
+       -0.0000306609655204        1.8908653830550113       -1.4937961300636446        0.1180711157196716 
+       -0.0000111133505652       -1.8942614459885567       -0.2787800661789135        0.0984154127838881 
+       -0.0000361707390510       -1.8909017279814402       -1.4937693766363269        0.1180814044422489 

total molecule built from fragment files: /home/boittier/pydcm/models/water_2_2_2/3-fragfit/frag1/fit1/2charges.xyz /home/boittier/pydcm/models/water_2_2_2/3-fragfit/frag2/fit2/2charges.xyz /home/boittier/pydcm/models/water_2_2_2/3-fragfit/frag3/fit1/2charges.xyz 