8
s                      x[A]                      y[A]                      z[A]                      q[e]
O        0.3613242911446042       -0.0926382202748550        0.4152798926601578       -0.7165677862642024 
N        0.0000278549438989       -0.1360331260955318        0.3557283919623166        0.9999999999999853 
O       -0.3613711220383442       -0.0926311480198796        0.4152760041239217       -0.7164169731049221 
N        0.0000431709109296        0.7665679886892550       -0.0683500850316664        0.6235631910414589 
O        0.0000412329718238        0.7712433260563558       -0.2219279193139938       -0.9999999996175288 
N        0.0000184390815639        0.8669475578822585       -0.4794682364214016        0.5929247507190722 
N       -0.0000058809322792       -1.0024000608638064       -0.1475240684949500        0.0984154127838881 
N       -0.0000191407321851       -1.0006221745314046       -0.7904687693600400        0.1180814044422489 

        RMSE         3.846688021e-01 kcal/mol
         MAE         2.734654995e-01 kcal/mol
     max. AE         2.984532886e+00 kcal/mol

Coordinates in bohr
s                   x[bohr]                   y[bohr]                   z[bohr]                      q[e]
-        0.6828039032884313       -0.1750608523910449        0.7847652057029185       -0.7165677862642024 
+        0.0000526382113967       -0.2570653336932273        0.6722291871740770        0.9999999999999853 
-       -0.6828924008454013       -0.1750474877670199        0.7847578574349355       -0.7164169731049221 
+        0.0000815811923352        1.4486034502549161       -0.1291629320073598        0.6235631910414589 
-        0.0000779190184426        1.4574385567829991       -0.4193829567235779       -0.9999999996175288 
+        0.0000348448116372        1.6382933308834067       -0.9060635870737316        0.5929247507190722 
+       -0.0000111133505652       -1.8942614459885567       -0.2787800661789135        0.0984154127838881 
+       -0.0000361707390510       -1.8909017279814402       -1.4937693766363269        0.1180814044422489 

total molecule built from fragment files: /home/boittier/pydcm/models/water_2_2_2/3-fragfit/frag1/fit1/3charges.xyz /home/boittier/pydcm/models/water_2_2_2/3-fragfit/frag2/fit1/3charges.xyz /home/boittier/pydcm/models/water_2_2_2/3-fragfit/frag3/fit1/2charges.xyz 