10
s                      x[A]                      y[A]                      z[A]                      q[e]
N       -2.0813480812336409        1.3398781975959921        0.0213692347698643        0.3150592934470023
O       -2.0385410535311892        0.9665401892905245       -0.0064742231173952       -0.9998911372227972
N       -2.0442220726770493        0.8075596077985832       -0.0563600717638661        0.6984569858189043
O       -3.0825074225734963       -0.3072337691881510        0.1639476498936588       -0.9986675466031798
N       -3.0912141564975970       -0.2773799831027362        0.1515174621402986        0.8492478410776446
N       -3.2108621066117258       -0.5634388019310225        0.1336800183490135        0.1790003474446390
N       -1.7701121358404441        0.1346890624635793        0.1851155200172080        0.9999236408037232
O       -1.8247478806269204       -0.1712422534484657       -0.1702504488280953       -0.9614644802254021
N       -1.9643801104422454       -0.4441710968364022       -0.1351843120064140        0.4386533792487656
O       -1.6845063421682722        0.0589680311154033        0.4562183736749126       -0.5271999843341629

        RMSE         6.569931690E-02 kcal/mol
         MAE         3.811888164E-02 kcal/mol
     max. AE         6.312929614E-01 kcal/mol

Coordinates in bohr
s                   x[bohr]                   y[bohr]                   z[bohr]                      q[e]
+       -3.9331778452787329        2.5320028349284924        0.0403820012256543        0.3150592934470023
-       -3.8522842866762130        1.8264962470072588       -0.0122345085669847       -0.9998911372227972
+       -3.8630198569753711        1.5260664887214599       -0.1065051000448559        0.6984569858189043
-       -5.8250948083548098       -0.5805876802577293        0.3098161572114603       -0.9986675466031798
+       -5.8415481509185927       -0.5241722007482915        0.2863265066695896        0.8492478410776446
+       -6.0676500081067362       -1.0647450241057117        0.2526186231258127        0.1790003474446390
+       -3.3450271480876435        0.2545254401508472        0.3498176344042296        0.9999236408037232
-       -3.4482737423944938       -0.3236009601238366       -0.3217267210213728       -0.9614644802254021
+       -3.7121404150324451       -0.8393617258650081       -0.2554613261505628        0.4386533792487656
-       -3.1832556432947876        0.1114334289655877        0.8621277796473643       -0.5271999843341629
