11
s                      x[A]                      y[A]                      z[A]                      q[e]
N       -2.0274813631279485        0.7951513417388060       -0.0270249985910172        0.9006535918626607
O       -2.0555176838967264        0.8834121613585946        0.1280792174945715       -0.5024643143464121
O       -2.0494429215568823        1.0335741947349490       -0.0921496565045090       -0.8575948141790735
N       -2.0819663000873687        1.2732214146349980       -0.0344540510228308        0.4968703426182340
O       -2.6298921951964487       -0.3143226017559619        0.1771516782726312       -0.9451801864521224
N       -2.5907142189777805       -0.3649185955571077        0.1451813797004661        0.8718315088982223
N       -3.3100692004751711       -0.5381782363473850        0.0954291017110545        0.0864550385511383
N       -1.9482872070695934        0.1170537979495820        0.1961029834235773        0.9983640628517407
O       -1.8582725024150473       -0.2066579043962124       -0.2207470888018455       -0.9999902720428994
N       -1.8827230191067457       -0.4024680425069113       -0.2147521406815392        0.4714706275627588
O       -1.7966140248862426        0.0401636535886604        0.4635556197661038       -0.5272972458691106

        RMSE         5.583223066E-02 kcal/mol
         MAE         3.154452658E-02 kcal/mol
     max. AE         5.970832451E-01 kcal/mol

Coordinates in bohr
s                   x[bohr]                   y[bohr]                   z[bohr]                      q[e]
+       -3.8313845007817342        1.5026182641766672       -0.0510698458779061        0.9006535918626607
-       -3.8843654686002096        1.6694070408665027        0.2420346434276870       -0.5024643143464121
-       -3.8728858315006591        1.9531721583896700       -0.1741376133485356       -0.8575948141790735
+       -3.9343461095978731        2.4060397707281296       -0.0651087203457003        0.4968703426182340
-       -4.9697759884003672       -0.5939836323601178        0.3347681546004910       -0.9451801864521224
+       -4.8957403431973843       -0.6895962036896452        0.2743530461499835        0.8718315088982223
+       -6.2551242452112357       -1.0170094733784711        0.1803348666323520        0.0864550385511383
+       -3.6817292350946760        0.2211996200693870        0.3705809310557575        0.9983640628517407
-       -3.5116260960336101       -0.3905268409698887       -0.4171515408276065       -0.9999902720428994
+       -3.5578308762068551       -0.7605543745871820       -0.4058227307438995        0.4714706275627588
-       -3.3951084601914734        0.0758983054803295        0.8759931652748016       -0.5272972458691106
