12
s                      x[A]                      y[A]                      z[A]                      q[e]
N       -2.1716314901306766        1.1146898691358682       -0.0371308525574313        0.7384983475789964
O       -2.0205042678905820        0.8020085172840510        0.0954396038834863       -0.3838039186295333
O       -2.1247179988144160        1.2144848559584875       -0.0550953212675061       -0.9971683820891895
N       -2.0739610551351482        1.3699872198669436       -0.0403059961231473        0.4595457292390904
N       -1.9554072402832303       -0.3512715863692465       -0.0716588147812911        0.9998842511912708
O       -1.9876902581474634       -0.1623970352893512        0.1336402173733955       -0.6157308086641591
O       -3.0312765647701507       -0.2956491250705069       -0.1946473965401305       -0.7567117127707791
N       -3.2726578847545804       -0.5821752216605064       -0.0176135628101974        0.1146428570596428
N       -1.8408805366316074        0.2228063863083554        0.1522923132219261        0.9961099041873755
O       -1.8203609141005881       -0.2457148459106152       -0.2309000743013043       -0.8504852782873605
N       -3.0406572829781182       -0.2772320182519195       -0.2116019870475343        0.6686660400693135
O       -1.6758643482502233        0.0574210084513679        0.4176455011915790       -0.3803286894295311

        RMSE         4.583485346E-02 kcal/mol
         MAE         2.669740695E-02 kcal/mol
     max. AE         4.482855093E-01 kcal/mol

Coordinates in bohr
s                   x[bohr]                   y[bohr]                   z[bohr]                      q[e]
+       -4.1037887617668529        2.1064585674892178       -0.0701671421383006        0.7384983475789964
-       -3.8181997016318752        1.5155764479513674        0.1803547128619704       -0.3838039186295333
-       -4.0151351115900766        2.2950437612776411       -0.1041150679896985       -0.9971683820891895
+       -3.9192183890709731        2.5889006409259010       -0.0761672938865133        0.4595457292390904
+       -3.6951841478726131       -0.6638070938929810       -0.1354155344115494        0.9998842511912708
-       -3.7561902101392763       -0.3068859202831839        0.2525434101823686       -0.6157308086641591
-       -5.7282825179342121       -0.5586958756144860       -0.3678302704942342       -0.7567117127707791
+       -6.1844271045062849       -1.1001517259660609       -0.0332848098048223        0.1146428570596428
+       -3.4787600439195749        0.4210430491257485        0.2877907630018804        0.9961099041873755
-       -3.4399835771381748       -0.4643337637301341       -0.4363379027773284       -0.8504852782873605
+       -5.7460095062073666       -0.5238925877040538       -0.3998698031225145        0.6686660400693135
-       -3.1669246416118031        0.1085099798206847        0.7892356147816554       -0.3803286894295311
