4
s                      x[A]                      y[A]                      z[A]                      q[e]
N       -2.0791650482290169        1.3849643240082503        0.0053501401929970        0.0921502409712069
N       -2.9629594847327483       -0.5841336175210856       -0.0035450490869864        0.1263355790727978
O       -1.8086892743542917        0.0202022962394436        0.5205122489814649       -0.0996039697247922
O       -1.8323808628262759       -0.0850080897162139       -0.5014737256318907       -0.1257635108640757

        RMSE         2.123768735E-01 kcal/mol
         MAE         1.288236111E-01 kcal/mol
     max. AE         2.143405449E+00 kcal/mol

Coordinates in bohr
s                   x[bohr]                   y[bohr]                   z[bohr]                      q[e]
+       -3.9290525107771583        2.6172032659054310        0.0101102996975684        0.0921502409712069
+       -5.5991819469725392       -1.1038525577877860       -0.0066991718757086        0.1263355790727978
-       -3.4179273745826664        0.0381768069979150        0.9836255955210840       -0.0996039697247922
-       -3.4626979882717706       -0.1606420080119924       -0.9476480005572548       -0.1257635108640757
