6
s                      x[A]                      y[A]                      z[A]                      q[e]
N       -0.9323493796649989       -0.7361994910706998       -0.0356615386983423        0.9901243126370716
O       -0.5388707394949351       -0.6353641957926751        0.3996025558129296       -0.5699795834830514
O       -0.5858006809102633       -0.6586400443791751       -0.2785137149806678       -0.9998058357013890
N       -0.1211365586456754       -0.5825694493916417       -0.0172391098424689        0.4152532860697774
O       -0.6757508859074609       -1.2998756888827776        0.0061947840288167       -0.9897733368710140
N       -0.5633664376196460       -1.5660740062543865        0.0014735710100288        0.8726948434821548

        RMSE         8.585998582E-02 kcal/mol
         MAE         5.623913288E-02 kcal/mol
     max. AE         8.223461737E-01 kcal/mol

Coordinates in bohr
s                   x[bohr]                   y[bohr]                   z[bohr]                      q[e]
+       -1.7618849808073480       -1.3912154118250586       -0.0673905413522829        0.9901243126370716
-       -1.0183181146683584       -1.2006643199699210        0.7551393895194130       -0.5699795834830514
-       -1.1070028510271093       -1.2446492991360305       -0.5263146434972832       -0.9998058357013890
+       -0.2289149196207871       -1.1008967084089674       -0.0325771962489507        0.4152532860697774
-       -1.2769841034006011       -2.4564090491292765        0.0117064452208238       -0.9897733368710140
+       -1.0646082753759529       -2.9594509640193203        0.0027846456353686        0.8726948434821548
