8
s                      x[A]                      y[A]                      z[A]                      q[e]
N       -1.1272511296782806       -0.6874110566425253       -0.0213593378544604        0.4376980013275043
O       -0.5068366104829447       -0.6740346869290299        0.4009122949664012       -0.5748608089831739
O       -0.5269874402743666       -0.6735823967086221       -0.3233650452092412       -0.7757290503063221
N       -0.1697307098637003       -0.6156982262530888       -0.0182855318451235        0.4684599219556213
N       -0.7677477454598003       -1.6170895313513216       -0.0154799832418335        0.3259482686606641
O       -0.8442265231343422       -1.4655507656537770       -0.0062698337124429       -0.3644497346389992
O       -0.3789024475962644       -1.4295730961617610       -0.3065059960568889       -0.0090386844983730
N       -0.4384135367032281       -1.7630182653724347        0.0044026173352543        0.2104857726166277

        RMSE         8.850177553E-02 kcal/mol
         MAE         5.836210840E-02 kcal/mol
     max. AE         8.446003142E-01 kcal/mol

Coordinates in bohr
s                   x[bohr]                   y[bohr]                   z[bohr]                      q[e]
+       -2.1301959097048968       -1.2990186326659510       -0.0403632987660541        0.4376980013275043
-       -0.9577823841681135       -1.2737409573545759        0.7576144378152634       -0.5748608089831739
-       -0.9958619336746175       -1.2728862527087821       -0.6110713739917548       -0.7757290503063221
+       -0.3207445567219372       -1.1635010235485068       -0.0345546472456209        0.4684599219556213
+       -1.4508329723567313       -3.0558563345989480       -0.0292529287537422        0.3259482686606641
-       -1.5953569165713941       -2.7694895700406654       -0.0118482685686796       -0.3644497346389992
-       -0.7160218542225765       -2.7015016280685158       -0.5792123883581770       -0.0090386844983730
+       -0.8284815140624546       -3.3316216757336319        0.0083197409988236        0.2104857726166277
