1
s                      x[A]                      y[A]                      z[A]                      q[e]
N       -0.4343645279219615       -1.9837786541369982        0.0062165028982775        0.1906282943451606

        RMSE         1.115392810E+00 kcal/mol
         MAE         8.441920158E-01 kcal/mol
     max. AE         4.837328730E+00 kcal/mol

Coordinates in bohr
s                   x[bohr]                   y[bohr]                   z[bohr]                      q[e]
+       -0.8208299963862870       -3.7487983498482547        0.0117474879358592        0.1906282943451606
