1
s                      x[A]                      y[A]                      z[A]                      q[e]
O        0.4162179559878247        1.4546185946715300       -0.0137677814375179       -0.5910185583994696

        RMSE         1.124805265E+00 kcal/mol
         MAE         7.732478820E-01 kcal/mol
     max. AE         6.824420541E+00 kcal/mol

Coordinates in bohr
s                   x[bohr]                   y[bohr]                   z[bohr]                      q[e]
-        0.7865379453148489        2.7488307609275413       -0.0260173362720709       -0.5910185583994696
