3
s                      x[A]                      y[A]                      z[A]                      q[e]
O        1.4753889185934002       -1.0622235776577238        0.0240361717995379       -0.2456343440846485
O        0.4102399346642933        0.3299683166668884        0.4836177729078718       -0.1491523567132286
N        0.3087817384773494       -0.1041903688417215        0.1200433151564756        0.4492157085209003

        RMSE         5.512249830E-01 kcal/mol
         MAE         3.738022604E-01 kcal/mol
     max. AE         4.435286054E+00 kcal/mol

Coordinates in bohr
s                   x[bohr]                   y[bohr]                   z[bohr]                      q[e]
-        2.7880809846769212       -2.0073116457770830        0.0454217818055794       -0.2456343440846485
-        0.7752411222412275        0.6235497485787607        0.9139051401997363       -0.1491523567132286
+        0.5835129182649339       -0.1968912620212883        0.2268489888377597        0.4492157085209003
