5
s                      x[A]                      y[A]                      z[A]                      q[e]
O        1.2781900994981366       -0.7408628229712648        0.0078802189655639       -0.6654838277262070
O        0.3266054324237771        0.4652503279299952       -0.1616895236772640       -0.7225875482292913
N        0.1697746611516843        0.5159860437692186        0.0334952432071277        0.9999315257614478
O        0.3511122682703038        0.4912782091147050        0.3219029955857511       -0.5574311409131654
N        0.8178721350405395       -0.2322422195891057        0.0108584301968859        0.9999999988302390

        RMSE         2.719950428E-01 kcal/mol
         MAE         1.621606759E-01 kcal/mol
     max. AE         2.494012660E+00 kcal/mol

Coordinates in bohr
s                   x[bohr]                   y[bohr]                   z[bohr]                      q[e]
-        2.4154292243231694       -1.4000278319492372        0.0148914556535543       -0.6654838277262070
-        0.6171948183676628        0.8791956995671337       -0.3055489171057579       -0.7225875482292913
+        0.3208276126190881        0.9750723072823189        0.0632968361670731        0.9999315257614478
-        0.6635060263191508        0.9283812666321922        0.6083085006215299       -0.5574311409131654
+        1.5455543408700803       -0.4388741897918469        0.0205194592245155        0.9999999988302390
