1
s                      x[A]                      y[A]                      z[A]                      q[e]
O        0.6470748290092297        0.7937539049098679       -0.0424095337097474       -0.1750203447877256

        RMSE         1.446928536E+00 kcal/mol
         MAE         1.149972995E+00 kcal/mol
     max. AE         8.041598000E+00 kcal/mol

Coordinates in bohr
s                   x[bohr]                   y[bohr]                   z[bohr]                      q[e]
-        1.2227942095048985        1.4999774912923460       -0.0801424038197942       -0.1750203447877256
