32
s                      x[A]                      y[A]                      z[A]                      q[e]
N        2.4585609392406891        0.0773321442454874       -0.5677028460690555        0.0179947685807332
N        1.6897622674581489        0.2990644161940719       -1.6692315433085949        0.0807758878908036
N        1.9326676196481283        0.0949216957157776        0.2296448025203683        0.3446032059546755
N        1.5202530108820540        0.2763437444642277       -0.6744298498562801        0.1256642103117953
N        2.2466805164405503       -0.0245447425929658        0.1183423277526051        0.0316263864905403
O        1.6336353693208912        0.0373898894563075        0.0118903477952869       -0.4886983905637987
O        1.6570013869538249        0.3570033234691613        0.0882129042442550       -0.1455499631794401
N        3.3536953965590306        0.0017901532925125        0.1186766049033732        0.0583746516609476
O        1.3694519800203924        0.3111288216498711        0.3538042144715688       -0.5060969733546596
O        1.1895209432609015       -0.1678004716450276        0.2582899415198271       -0.6371921090968482
N        0.6522649004677663       -0.0062976467249492        0.3867113867496036        0.9851787247444279
N        1.3411768960884574        0.0386835861477037        0.6363760056663414        0.9972702011074002
N        1.1116059143677974       -0.2493489412284305        1.9078934480660470        0.0854338105248911
O        0.9755039371941752        0.0118240112921655        0.7514634279821391       -0.9174438566089332
O       -1.1079591496695071       -1.1804933774846373       -0.1254373039822931       -0.7534630463117813
N       -0.5245328505610470       -1.1387030510439002       -0.0721174142291998        0.9420925953728968
O       -0.5616358225926511       -1.1893699339245158       -0.0769846444867433       -0.9988078725064942
N       -1.2212932086796076       -1.6207945689547005       -0.1784469735042656        0.2314302504926400
N       -0.9176170521194538       -0.2866727163268552       -0.0239240532836616        0.9962003584734866
N       -0.2224934556639858        0.2915166097652951        0.0998356116443747        0.9977995976772446
O       -0.6909734519649269        0.3178209965222183        0.2960964937879165       -0.6296626333955749
O       -0.4838311560373154        0.3336578443439061       -0.1941928464015943       -0.6885568178711418
N       -2.2435326285546546        0.6585410995485532       -0.2519180940662551        0.7699282839783442
N       -2.6169831725208423        0.9640564661901727       -0.3533876938508451        0.1277864824831971
O       -2.2275055382005626        0.6896200697596954       -0.2327791856411144       -0.8912647279584751
O       -0.9290893858304545        0.8403248440636568       -0.2998181330399823       -0.3494349537849314
O       -1.3083666839969113        0.6521596461186863        0.2879581167176634       -0.5933420117569169
N       -1.4741037751487205        0.6407901850842554        0.1123043136879308        0.5522265891926247
O       -0.8357604077214722        1.8433197707272329       -0.0746737028157821       -0.4401960937544057
N       -0.8762391594521074        1.7023396531495054        0.0420370219201808        0.7882653298680882
O       -0.9081159862579082        2.0158545288049710        0.2576651560196835       -0.5920263279939139
N       -0.8702115412043764        2.1697373221100209        0.2084849997139265        0.4990844433325784

        RMSE         4.728782766E-01 kcal/mol
         MAE         2.815368625E-01 kcal/mol
     max. AE         4.515468002E+00 kcal/mol

Coordinates in bohr
s                   x[bohr]                   y[bohr]                   z[bohr]                      q[e]
+        4.6460068379132666        0.1461365733183708       -1.0728028997134582        0.0179947685807332
+        3.1931879026285221        0.5651498404767308       -3.1543904568285419        0.0807758878908036
+        3.6522124926754609        0.1793760082668634        0.4339657828983436        0.3446032059546755
+        2.8728618319697414        0.5222139935208930       -1.2744877070620129        0.1256642103117953
+        4.2456108674747934       -0.0463828413205650        0.2236345885015909        0.0316263864905403
-        3.0871234368776359        0.0706566509335644        0.0224695008695336       -0.4886983905637987
-        3.1312788108464988        0.6746385072349459        0.1666982297528785       -0.1455499631794401
+        6.3375658077052517        0.0033828994454352        0.2242662807665409        0.0583746516609476
-        2.5878891842044873        0.5879482626546706        0.6685930673840083       -0.5060969733546596
-        2.2478688032593643       -0.3170969351317541        0.4880972504329920       -0.6371921090968482
+        1.2326020231330879       -0.0119008275450404        0.7307786105527522        0.9851787247444279
+        2.5344570193987965        0.0731013833697143        1.2025763635221842        0.9972702011074002
+        2.1006307375942641       -0.4712012085946137        3.6053960934002269        0.0854338105248911
-        1.8434352756028052        0.0223441430465135        1.4200600721839454       -0.9174438566089332
-       -2.0937393510705076       -2.2308091763626692       -0.2370421504423345       -0.7534630463117813
+       -0.9912234313660774       -2.1518369046961969       -0.1362821617693830        0.9420925953728968
-       -1.0613378869463308       -2.2475834369712082       -0.1454798939456819       -0.9988078725064942
+       -2.3079096832860735       -3.0628578409538569       -0.3372159078398916        0.2314302504926400
+       -1.7340449165557292       -0.5417329214988191       -0.0452099085169804        0.9962003584734866
+       -0.4204516959116270        0.5508865534783729        0.1886619635754367        0.9977995976772446
-       -1.3057505841759021        0.6005946403470775        0.5595412799674873       -0.6296626333955749
-       -0.9143083758741779        0.6305219454206208       -0.3669712952221120       -0.6885568178711418
+       -4.2396622214968041        1.2444623205046255       -0.4760562038325449        0.7699282839783442
+       -4.9453814709961463        1.8218026905761209       -0.6678059574852346        0.1277864824831971
-       -4.2093754101396037        1.3031930624649464       -0.4398889085688117       -0.8912647279584751
-       -1.7557244852893781        1.5879838116983678       -0.5665741588916454       -0.3494349537849314
-       -2.4724547044275895        1.2324031212398134        0.5441619761990031       -0.5933420117569169
+       -2.7856524155345492        1.2109179536906747        0.2122243955776940        0.5522265891926247
-       -1.5793582770945525        3.4833695283161861       -0.1411128470956573       -0.4401960937544057
+       -1.6558520317658549        3.2169557169594380        0.0794384585590091        0.7882653298680882
-       -1.7160905041774712        3.8094129682052338        0.4869165769505633       -0.5920263279939139
+       -1.6444614840888314        4.1002093029722131        0.3939795507254747        0.4990844433325784
