11
s                      x[A]                      y[A]                      z[A]                      q[e]
O       -1.7751207344380397       -0.2432047275290655        0.2734937562589639       -0.2828289424932207
O       -2.4155418428451734       -0.2889113367279257        0.3166690069311451       -0.4599911779799927
N       -2.3579059161448708       -0.1358819105019341        0.3053514817112470        0.2521701540119640
N       -2.7643626167673330       -0.2795520240810159        0.4396604421590803        0.1983617699536728
O       -1.4289893365773281       -1.2739893017282353        0.4341601800328114       -0.3092889449685790
O       -1.3896569573378168       -0.7929531027579001       -0.2282461484164177       -0.3645098766091322
O       -1.2955982839932250       -0.5437192685452554        0.3460368910173505       -0.5157092266231198
N       -1.4733855491616068       -1.2080690393057554        0.1678253436990820        0.9993701239960324
N       -1.7645926777963339       -0.2626855263929559        0.2661556988754508        0.5528119039530854
N       -1.5863250927169088       -1.9811534211575619        0.1515527833601870        0.3797162008450410
O       -1.6001297856450187       -1.7641962872872194        0.0796663468501845       -0.5491824263299131

        RMSE         5.758969891E-02 kcal/mol
         MAE         3.474310825E-02 kcal/mol
     max. AE         7.633926973E-01 kcal/mol

Coordinates in bohr
s                   x[bohr]                   y[bohr]                   z[bohr]                      q[e]
-       -3.3544920277094512       -0.4595903274465277        0.5168282963521594       -0.2828289424932207
-       -4.5647125275610714       -0.5459633009557050        0.5984176955205710       -0.4599911779799927
+       -4.4557964111105370       -0.2567795962526274        0.5770306724370017        0.2521701540119640
+       -5.2238882571441954       -0.5282767633305117        0.8308378238783544        0.1983617699536728
-       -2.7003984823308267       -2.4074908670296220        0.8204438348414778       -0.3092889449685790
-       -2.6260710577055071       -1.4984641945444497       -0.4313227096976295       -0.3645098766091322
-       -2.4483259253603280       -1.0274805066847899        0.6539149533276906       -0.5157092266231198
+       -2.7842951651227175       -2.2829196249328256        0.3171439365020945        0.9993701239960324
+       -3.3345968840233198       -0.4964037020044107        0.5029613776044261        0.5528119039530854
+       -2.9977199711764539       -3.7438373785016004        0.2863932541015958        0.3797162008450410
-       -3.0238070600566265       -3.3338478145223629        0.1505475769625786       -0.5491824263299131
