12
s                      x[A]                      y[A]                      z[A]                      q[e]
O       -1.5828207712062321       -0.2645474746879818        0.1574289528883764       -0.4854743520332678
O       -2.5514298518545417       -0.4835642684839058        0.3143885374046007       -0.9996475222027337
N       -2.4696678682696138       -0.6007928148607523        0.3017475117242714        0.7218598647291975
N       -2.7530358469541332       -0.2832829741528943        0.3953886907010786        0.3618681788031266
O       -1.3027798279852485       -0.9896616705710657        0.5068168638908476       -0.2217459081194292
O       -1.4383696006368021       -0.5617445143280783       -0.2687663697275225       -0.2254612213171913
O       -1.1667371782980283       -0.4191091596170241        0.3081862060708181       -0.2282643607071154
N       -1.6651468762479913       -0.2195970084844676        0.1436289383681340        0.6676671550457934
N       -1.6331923722129897       -1.9649325973264806        0.2484795077165560        0.2835207686788399
N       -1.2974892349376974       -1.2439316911904006        0.2741881436996126        0.3250486089904103
N       -1.5656160537419379       -2.2280361575600471        0.1672524746952701        0.0476063864872554
O       -1.6368272396037464       -1.8382869085399018        0.2058011572117367       -0.3460580405990476

        RMSE         6.678573219E-02 kcal/mol
         MAE         3.862776075E-02 kcal/mol
     max. AE         9.750727672E-01 kcal/mol

Coordinates in bohr
s                   x[bohr]                   y[bohr]                   z[bohr]                      q[e]
-       -2.9910977632657243       -0.4999222743417727        0.2974976051766346       -0.4854743520332678
-       -4.8215036483225235       -0.9138040314919403        0.5941082326779495       -0.9996475222027337
+       -4.6669958918728316       -1.1353338782297118        0.5702201561972481        0.7218598647291975
+       -5.2024837643111441       -0.5353272371541191        0.7471763385283929        0.3618681788031266
-       -2.4618970766631794       -1.8701895142423814        0.9577450685171389       -0.2217459081194292
-       -2.7181246123877076       -1.0615432845583888       -0.5078948305185573       -0.2254612213171913
-       -2.2048137273727320       -0.7920015283469654        0.5823875251177548       -0.2282643607071154
+       -3.1466715547703221       -0.4149782040054828        0.2714193572060351        0.6676671550457934
+       -3.0862862936693323       -3.7131844639315572        0.4695582173728759        0.2835207686788399
+       -2.4518993047620565       -2.3506902151274391        0.5181404984399431        0.3250486089904103
+       -2.9585855591923274       -4.2103781354058949        0.3160613709791263        0.0476063864872554
-       -3.0931551975402201       -3.4738587971549575        0.3889078234324725       -0.3460580405990476
