4
s                      x[A]                      y[A]                      z[A]                      q[e]
N       -2.8164410568716134       -0.4253996938105996        0.5570942101888255        0.0678144778887025
O       -1.4395853486089278       -0.6517194346892219        0.1861712774132066       -0.5269591937440889
N       -1.4697093708527000       -1.8340977474820592        0.2574611924842076        0.1968694539657563
N       -2.2239797619230339       -0.0813136456048439        0.3099428721911038        0.1631948196454682

        RMSE         2.110406648E-01 kcal/mol
         MAE         1.336038004E-01 kcal/mol
     max. AE         2.014418970E+00 kcal/mol

Coordinates in bohr
s                   x[bohr]                   y[bohr]                   z[bohr]                      q[e]
+       -5.3223022459823444       -0.8038889151556509        1.0527554833351183        0.0678144778887025
-       -2.7204220430926060       -1.2315712422008294        0.3518127267375933       -0.5269591937440889
+       -2.7773481949305352       -3.4659424300602018        0.4865311417289338        0.1968694539657563
+       -4.2027126585954377       -0.1536605204556926        0.5857071429789655        0.1631948196454682
