7
s                      x[A]                      y[A]                      z[A]                      q[e]
N       -2.8918757518457627       -0.2066450919742026        0.5314824478555976        0.0755163883631432
O       -2.5245849847875328       -0.5945872600801567        0.2365781415907935       -0.0037094954010740
O       -1.5424014902993946       -0.3908924322934893       -0.0569921288037346       -0.6787809599305439
O       -1.3864141097586329       -0.4017854536559453        0.3249977814412295       -0.6136928836228748
N       -1.5982283194174725       -0.2972427659279309        0.1281233201444906        0.9859674254742714
N       -1.5223324610447069       -1.9670490418515474        0.0777552509931895        0.2980788294244586
O       -1.5724978424384051       -1.9827223710827189       -0.0770853991802834       -0.1624597465515425

        RMSE         1.111674178E-01 kcal/mol
         MAE         6.524390775E-02 kcal/mol
     max. AE         1.352876431E+00 kcal/mol

Coordinates in bohr
s                   x[bohr]                   y[bohr]                   z[bohr]                      q[e]
+       -5.4648531598409367       -0.3905026290012863        1.0043562669350006        0.0755163883631432
-       -4.7707742016915544       -1.1236070792378605        0.4470678948763838       -0.0037094954010740
-       -2.9147163921638546       -0.7386796415487620       -0.1076995147458748       -0.6787809599305439
-       -2.6199429639142453       -0.7592644686025654        0.6141567983053248       -0.6136928836228748
+       -3.0202138096497566       -0.5617074203773569        0.2421179853574411        0.9859674254742714
+       -2.8767914232686942       -3.7171839644436577        0.1469361291933609        0.2980788294244586
-       -2.9715902550819218       -3.7468022641647045       -0.1456702927223270       -0.1624597465515425
