4
s                      x[A]                      y[A]                      z[A]                      q[e]
O        1.7700442767960856        0.7727028011594268        0.8384890946988202       -0.9999999876794055
N        1.6988969780615994        0.7160296118835784        0.5886185759611435        0.9999998289323792
O        1.7056397881692635        0.7913632095538998        0.4807996679261291       -0.5173358922554987
N        1.8126064150890835        0.9419779703129345        0.9320493029272953        0.5598558311203080

        RMSE         4.005223926E-02 kcal/mol
         MAE         2.383231944E-02 kcal/mol
     max. AE         3.925645538E-01 kcal/mol

Coordinates in bohr
s                   x[bohr]                   y[bohr]                   z[bohr]                      q[e]
-        3.3448989130786702        1.4601966705654141        1.5845147481638433       -0.9999999876794055
+        3.2104500039043593        1.3530998641778271        1.1123279009235560        0.9999998289323792
-        3.2231920683238133        1.4954597318201626        0.9085796935914544       -0.5173358922554987
+        3.4253296977662977        1.7800803801060907        1.7613179179564673        0.5598558311203080
