3
s                      x[A]                      y[A]                      z[A]                      q[e]
O        1.4903711726713051        0.1053980752467963       -0.1980970940668401       -0.2950622143026155
N        1.6257454556362150        0.2829640421428915       -1.3466226729049702        0.1771569931427336
N        2.9162250459751808        0.0262562339324600        0.1614436758500367        0.1448151524882061

        RMSE         2.699104525E-01 kcal/mol
         MAE         1.686979513E-01 kcal/mol
     max. AE         2.114342008E+00 kcal/mol

Coordinates in bohr
s                   x[bohr]                   y[bohr]                   z[bohr]                      q[e]
-        2.8163933416261853        0.1991734963668410       -0.3743492540353847       -0.2950622143026155
+        3.0722136608600961        0.5347245430025720       -2.5447480461223737        0.1771569931427336
+        5.5108666570937554        0.0496170912183020        0.3050843320437594        0.1448151524882061
