5
s                      x[A]                      y[A]                      z[A]                      q[e]
N        1.6711998725418986        0.2116071493249854       -1.6454109091429938        0.4590861021339019
N        1.5319279437841311        0.1593585029241207       -1.1315442952815737        0.9965572782650175
O        1.6050407994514713        0.1730075891554052       -1.4433089302648203       -0.9998525676638675
O        1.4553939966063187        0.1110928814549957       -0.4598253202973342       -0.5688140157277406
N        2.9351870765043473        0.0239947556096556        0.1495879102173865        0.1399331343210131

        RMSE         2.222512378E-01 kcal/mol
         MAE         1.315338897E-01 kcal/mol
     max. AE         1.999062027E+00 kcal/mol

Coordinates in bohr
s                   x[bohr]                   y[bohr]                   z[bohr]                      q[e]
+        3.1581100600042182        0.3998795584130807       -3.1093759821208322        0.4590861021339019
+        2.8949242576877636        0.3011439262895585       -2.1383088169063571        0.9965572782650175
-        3.0330875311491639        0.3269369611294435       -2.7274585926280217       -0.9998525676638675
-        2.7502960582214424        0.2099351204378949       -0.8689439209128862       -0.5688140157277406
+        5.5466997015764496        0.0453435165495419        0.2826801819904352        0.1399331343210131
