33
s                      x[A]                      y[A]                      z[A]                      q[e]
N        1.4032291882954788       -0.2715489055353018       -0.2386453593630533        0.3833021894687417
O        1.6742954211243375       -0.5914371212377695       -0.2163254802325589       -0.4904106606558842
O        2.0753420646316476       -0.2317183090132640        0.8467170645526394       -0.1997869594859265
N        2.4397479320394511       -0.1462139756740962        1.0949776704481988        0.1617233766861288
N        2.2374452513407888       -0.1743346353143003       -0.9866146624335921        0.8835822520435166
O        2.1602668877178033       -0.1736632186674037       -0.9326554255001984       -0.8997558760522487
O        1.6908184437982756       -1.5422470488020052        0.4044695968274092       -0.8767128820063449
N        1.6884642705783881       -1.5371164121004364        0.3483090728380430        0.9940162468419269
O        0.3907561339721276        0.4476940153544467        0.0065780781678839       -0.7906993069969271
N        0.9426947673211979        0.2471661800677190        0.0432104107660871        0.6496791999507484
N        0.0812533480469159        0.4145849139132643       -0.0038772458436702        0.9778951563393889
O        0.0572825986076722        1.3671371811669335        0.0028561092451499       -0.5270725056851050
O        0.6593951360607700        1.5392729719247837        0.0024604742974493       -0.9935109355727431
N        0.5397688563614906        1.6169901791928771        0.0040459087387894        0.7823293222056201
N       -1.0093458152352106       -0.4576227130837650        0.2560231622298605        0.3869393829887185
O       -0.5813199189374049       -0.7066462640700905        0.5096981877402258       -0.3899286214308386
O       -0.6147540518779095       -0.6576035185690059       -0.4025955711920564       -0.7152324046533917
N       -1.0251144163821266       -0.5657485191466863       -0.2866093228650998        0.3790230979798644
N       -0.3346938563250710       -0.4689774683928201       -0.0076639485647759        0.7008290071995278
O       -0.6383620924172135       -0.4213400521635089        0.0831100376965864       -0.8750559651383933
N       -0.4714497776115605       -1.7781024345283059        0.0005268113009633        0.2459590936742038
O       -2.3431066567613352        0.1084230617492227       -0.0759632358522345       -0.6797283398951001
O       -1.7046275237497386       -0.5070708815139755       -0.2072928025396778       -0.4716171544273202
N       -2.4867669074870502        0.0966898327163808       -0.0417784824213140        0.6367121065958680
N       -1.6205973698009637       -0.3476455811060427       -0.1653220419730649        0.6981728947083758
N       -2.1274269716602672        0.7033588751722686        1.0439754321189565        0.0682554364239210
O       -2.5007186387720988       -0.5974811558941532        0.0932373645267847       -0.9952085555063149
N       -1.9030606227319267       -0.6420335154062314       -0.0123700396167875        0.3451198412182646
N       -2.6570407281422375       -0.7351339822529214        0.0318450150528121        0.8921623493362094
O       -2.5587846645751444       -0.6194633087700975       -0.1309575871239641       -0.2992495633441739
N       -2.3560242054639127        0.3784523856822627       -0.6015666895975329        0.5494192088281049
N       -2.1938651789843120        0.5921476430486433       -0.8737563500658098        0.3957642454762496
O       -2.2656541773443442        0.4395767848518338       -0.6738863887494848       -0.9269146771146675

        RMSE         5.032474157E-01 kcal/mol
         MAE         2.896299056E-01 kcal/mol
     max. AE         3.693516578E+00 kcal/mol

Coordinates in bohr
s                   x[bohr]                   y[bohr]                   z[bohr]                      q[e]
+        2.6517188571269483       -0.5131530611295396       -0.4509743703076337        0.3833021894687417
-        3.1639597990330772       -1.1176541795685819       -0.4087959115976775       -0.4904106606558842
-        3.9218281187960131       -0.4378841422892751        1.6000633577560850       -0.1997869594859265
+        4.6104554067066603       -0.2763043697383950        2.0692079106389132        0.1617233766861288
+        4.2281587457402452       -0.3294447149255962       -1.8644315033605150        0.8835822520435166
-        4.0823127756818058       -0.3281759213468884       -1.7624633236177121       -0.8997558760522487
-        3.1951837866515498       -2.9144245400313835        0.7643367640781499       -0.8767128820063449
+        3.1907350440140752       -2.9047290418161960        0.6582087546760433        0.9940162468419269
-        0.7384220750500288        0.8460190770264160        0.0124307661691540       -0.7906993069969271
+        1.7814349301392562        0.4670763878035825        0.0816558421164389        0.6496791999507484
+        0.1535465745851748        0.7834519430425801       -0.0073269327656064        0.9778951563393889
-        0.1082484231230323        2.5835148483359260        0.0053972642577214       -0.5270725056851050
-        1.2460762156138565        2.9088043492573781        0.0046496225609074       -0.9935109355727431
+        1.0200153095748026        3.0556685862295150        0.0076456594449085        0.7823293222056201
+       -1.9073871566715073       -0.8647815965172826        0.4838136583880953        0.3869393829887185
-       -1.0985354380650409       -1.3353679066704214        0.9631899814712136       -0.3899286214308386
-       -1.1617167925647427       -1.2426905492328424       -0.7607953688752460       -0.7152324046533917
+       -1.9371854942207589       -1.0691097570705714       -0.5416131252179567        0.3790230979798644
+       -0.6324797243277154       -0.8862389742729849       -0.0144827638270221        0.7008290071995278
-       -1.2063295235427329       -0.7962173042751469        0.1570552095230243       -0.8750559651383933
+       -0.8909109615938490       -3.3601266242683070        0.0009955290786167        0.2459590936742038
-       -4.4278298640160436        0.2048898923896335       -0.1435497113642823       -0.6797283398951001
-       -3.2212791658043654       -0.9582250922558904       -0.3917266245786000       -0.4716171544273202
+       -4.6993083930022488        0.1827173029502919       -0.0789498897135376        0.6367121065958680
+       -3.0624851885611224       -0.6569549370160571       -0.3124133818305364        0.6981728947083758
+       -4.0202543283500374        1.3291556419856674        1.9728276484113176        0.0682554364239210
-       -4.7256733441069727       -1.1290757497619226        0.1761930836151000       -0.9952085555063149
+       -3.5962633771065655       -1.2132675074826866       -0.0233759870367917        0.3451198412182646
+       -5.0210792803758766       -1.3892018919751969        0.0601783569108968        0.8921623493362094
-       -4.8354022300684960       -1.1706159983454025       -0.2474739737150746       -0.2992495633441739
+       -4.4522404932761779        0.7151713604656139       -1.1367962895376378        0.5494192088281049
+       -4.1458043444588686        1.1189968711972977       -1.6511602020040363        0.3957642454762496
-       -4.2814658901802707        0.8306797344792652       -1.2734607144103316       -0.9269146771146675
