26
s                      x[A]                      y[A]                      z[A]                      q[e]
N        1.9793706456699456        1.2361669151405685       -1.1549796625731861        0.0640903146384165
N        3.1269601116451846       -0.2687183828858586        0.0299331971742456        0.1073064670506478
N        1.9134923621576190       -0.2982765627255295        0.1465072104060321        0.6096620182359038
N        1.5140449831586296        0.3356003053951302       -0.4691097077507116        0.2222533059165516
O        1.7777738816675179       -0.1534394452079084        0.0193858106353978       -0.9993593050123761
O        1.3004447844912999       -0.3052208284262925        0.3671534952623315       -0.9953142860579542
O        0.9609043203095669       -0.4888557492073407       -0.2010456437121500       -0.5551859562643343
N        0.7971757816862541       -0.3996443269072575        0.0686619597802395        0.9961724050144184
N        1.4213766702642034       -0.5160569052750028        0.4405424554074496        0.6572471762344202
N        0.9574648716451999       -1.4447229426695951        1.0125389827288531        0.4898789753079484
N        0.5799423964009832       -1.3401999673709004        0.8714399319263121        0.1166987363852393
O        0.8917485685075186       -1.3382727162314489        0.9106667262702458       -0.6468050112258193
N       -1.5433703146308568       -1.2936566850449758       -0.2644741225863054        0.4166207535673701
O       -1.3738659728807059       -0.7920946567398345       -0.1751361433926565       -0.5056638407750604
N       -1.0036226776652510       -0.6573930747353653       -0.1009393455801541        0.7644891642838783
O       -1.2850395351549011       -1.0539587098224361       -0.1972369771324649       -0.9996299039829267
N       -0.2285840184883410        0.4730238394724485        0.0099967166270278        0.9705978895392054
O       -0.6742499369811332        0.2442798377151876        0.2354874168475993       -0.4820571130417490
O       -0.4343864205103140        0.4432003934124427       -0.1277373736135305       -0.9538526840377346
N       -1.0005914369001332       -0.1015898631813380       -0.0427600478287492        0.9193096500676370
O       -2.3403067415618191        1.4335836643125397        0.1344743694712383       -0.1658910190881580
N       -2.2843442702301746        1.4513489639086488        0.0236482014761947        0.2842408534443320
O       -0.5338991453147853        1.0506106330977905       -0.0953712247985211       -0.9995116615057142
N       -0.4831564465205437        1.0990600917221320        0.0433690878633161        0.9965057046961685
O       -0.7852488716266498        0.8720604037828329        0.4507265054771660       -0.3821525107607567
N       -0.1405304712356887        2.4348077304613094        0.4470160823247128        0.0703498773704466

        RMSE         4.673021987E-01 kcal/mol
         MAE         2.770180715E-01 kcal/mol
     max. AE         4.163250178E+00 kcal/mol

Coordinates in bohr
s                   x[bohr]                   y[bohr]                   z[bohr]                      q[e]
+        3.7404684210868258        2.3360169149677423       -2.1825952427370168        0.0640903146384165
+        5.9090982162404329       -0.5078041485301867        0.0565655447186524        0.1073064670506478
+        3.6159765076332646       -0.5636610131941938        0.2768585030722258        0.6096620182359038
+        2.8611303597932198        0.6341926648168033       -0.8864888704424063        0.2222533059165516
-        3.3595057493436822       -0.2899585282851396        0.0366338728208895       -0.9993593050123761
-        2.4574844839685843       -0.5767837735110463        0.6938195520503847       -0.9953142860579542
-        1.8158459981542856       -0.9238034808573716       -0.3799212053323362       -0.5551859562643343
+        1.5064439012347806       -0.7552183254476534        0.1297522992218532        0.9961724050144184
+        2.6860126279145220       -0.9752062161210885        0.8325045873567978        0.6572471762344202
+        1.8093463821560603       -2.7301306888110459        1.9134213687072066        0.4898789753079484
+        1.0959322977395580       -2.5326108916785195        1.6467828061283432        0.1166987363852393
-        1.6851605672482777       -2.5289689148499797        1.7209107042180363       -0.6468050112258193
+       -2.9165472048139982       -2.4446568351026601       -0.4997836589588775        0.4166207535673701
-       -2.5962304218302061       -1.4968419666768158       -0.3309593456810313       -0.5056638407750604
+       -1.8965719940859658       -1.2422928680224705       -0.1907477184294334        0.7644891642838783
-       -2.4283727818283998       -1.9916933091052837       -0.3727238685935471       -0.9996299039829267
+       -0.4319611915995533        0.8938855074154558        0.0188910565788931        0.9705978895392054
-       -1.2741477210015417        0.4616219912529885        0.4450067238334863       -0.4820571130417490
-       -0.8208713673824506        0.8375273622446804       -0.2413886521148559       -0.9538526840377346
+       -1.8908437792195698       -0.1919770185354608       -0.0808047795078136        0.9193096500676370
-       -4.4225387911144507        2.7090805034809713        0.2541197291942677       -0.1658910190881580
+       -4.3167850469938580        2.7426520542543242        0.0446886241496555        0.2842408534443320
-       -1.0089231632609552        1.9853663610486834       -0.1802254951186768       -0.9995116615057142
+       -0.9130333596732394        2.0769225687753896        0.0819556983725845        0.9965057046961685
-       -1.4839053076991604        1.6479553280057220        0.8517496528365115       -0.3821525107607567
+       -0.2655641029169807        4.6011197787194185        0.8447379692688171        0.0703498773704466
