4
s                      x[A]                      y[A]                      z[A]                      q[e]
N        1.0245952367573143        0.3233196543667526        0.0449544061126533        0.5661661290641636
N       -0.0674174555535871        0.2960749264103661       -0.0082725090500835        0.4244619466264812
O        0.7331195530562734        1.1917422508876494        0.0040386344433582       -0.6231410816286846
O       -0.1206830714320827        1.3526321508481749        0.0036778807579207       -0.2594222143486669

        RMSE         1.254590097E-01 kcal/mol
         MAE         7.547344488E-02 kcal/mol
     max. AE         1.252347603E+00 kcal/mol

Coordinates in bohr
s                   x[bohr]                   y[bohr]                   z[bohr]                      q[e]
+        1.9362043869199459        0.6109855977308475        0.0849515156855219        0.5661661290641636
+       -0.1274005270715055        0.5595005235306727       -0.0156327764750291        0.4244619466264812
-        1.3853951724944062        2.2520664663143086        0.0076319130187877       -0.6231410816286846
-       -0.2280579529856999        2.5561043135920101        0.0069501873545613       -0.2594222143486669
