5
s                      x[A]                      y[A]                      z[A]                      q[e]
O        0.4693079768162728        0.6421590222458662        0.0127649832182882       -0.9999218768268809
N        0.9119604980973746        0.3409380216283899        0.0392948505122432        0.8502037517741532
N        0.0351037072276823        0.5090944369862224       -0.0028921878416661        0.9760094695193422
O        0.8917682428098294        1.3915662642767697       -0.0000518507906265       -0.2813506441348246
O       -0.0786762130354632        1.2297119230534101       -0.0016778550178535       -0.4368759206184964

        RMSE         8.230524052E-02 kcal/mol
         MAE         4.864920519E-02 kcal/mol
     max. AE         1.146913455E+00 kcal/mol

Coordinates in bohr
s                   x[bohr]                   y[bohr]                   z[bohr]                      q[e]
-        0.8868635446754675        1.2135046810364680        0.0241223222786300       -0.9999218768268809
+        1.7233555786401427        0.6442794866330744        0.0742565056089459        0.8502037517741532
+        0.0663363926485740        0.9620490578981085       -0.0054654429241280        0.9760094695193422
-        1.6851977462913545        2.6296791249095639       -0.0000979837936725       -0.2813506441348246
-       -0.1486764952252006        2.3238187477810155       -0.0031706864619683       -0.4368759206184964
