6
s                      x[A]                      y[A]                      z[A]                      q[e]
O        0.5040636331330326        0.4256138463936877        0.0214570084269512       -0.4798927305014433
N        0.9654591127230859        0.2459507910251942        0.0472774235667948        0.6455298270116814
N        0.0405465564334993        0.3763007158895185       -0.0033857387209510        0.6871902211351284
O        0.1438901454629131        1.4726506174942466       -0.0064438191231206       -0.9742265711478357
O        0.7234994987823790        1.4674379843475953       -0.0057920362199447       -0.5057600152991029
N        0.3003737258136618        1.6041929231127872       -0.0115089343895622        0.7352240485148656

        RMSE         5.278220260E-02 kcal/mol
         MAE         3.305297407E-02 kcal/mol
     max. AE         5.967415185E-01 kcal/mol

Coordinates in bohr
s                   x[bohr]                   y[bohr]                   z[bohr]                      q[e]
-        0.9525422164246817        0.8042936048867467        0.0405478693985784       -0.4798927305014433
+        1.8244533083741497        0.4647796353773282        0.0893413824585077        0.6455298270116814
+        0.0766218869897339        0.7111052938449067       -0.0063981189149554        0.6871902211351284
-        0.2719129670771941        2.7829063455504808       -0.0121770533446858       -0.9742265711478357
-        1.3672159046047057        2.7730558965108263       -0.0109453621644276       -0.5057600152991029
+        0.5676240770711832        3.0314852770807947       -0.0217487339921358        0.7352240485148656
