7
s                      x[A]                      y[A]                      z[A]                      q[e]
O        0.4611251646290905        0.4882843256189212        0.0162813401096407       -0.7720368843236695
N        0.9272877612595842        0.2729287393791757        0.0427698974421923        0.7426898484295326
N        0.0591776792864071        0.4211177532736107       -0.0010072395255177        0.8624483472688207
O        0.7765281428206295        1.4686660520159420       -0.0022944651076092       -0.3900957934679734
O        0.0113955995736589        1.3544334599611958       -0.0002286289747948       -0.4441884192169994
N        0.3222000809408950        1.8290503039127664        0.0191046170565777        0.9558685004303162
O        0.3071766413739030        1.8272321624283665        0.0223688299055360       -0.8466208194067338

        RMSE         5.144832829E-02 kcal/mol
         MAE         3.260324252E-02 kcal/mol
     max. AE         6.661893718E-01 kcal/mol

Coordinates in bohr
s                   x[bohr]                   y[bohr]                   z[bohr]                      q[e]
-        0.8714002707056343        0.9227236467736324        0.0307672737626525       -0.7720368843236695
+        1.7523199082695378        0.5157605691930991        0.0808233925796626        0.7426898484295326
+        0.1118296065914880        0.7957972202552459       -0.0019034068459646        0.8624483472688207
-        1.4674255186413914        2.7753766080675311       -0.0043359106578005       -0.3900957934679734
-        0.0215345622295993        2.5595082944829111       -0.0004320461467065       -0.4441884192169994
+        0.6088699105786362        3.4564041440805351        0.0361024939686821        0.9558685004303162
-        0.5804797243346544        3.4529683546176861        0.0422709622684138       -0.8466208194067338
