12
s                      x[A]                      y[A]                      z[A]                      q[e]
N       -1.2904223023289543       -0.0483837771105826       -0.3279494596538558        0.1470442225220450
N        1.3261253681725949        0.0501634448034191       -0.0277526671245792        0.7467030853472895
N        1.2083937657769523       -0.2300481374558227        0.0237070679854686        0.1683739365190884
O        1.6633553856442209        0.1628060180203081       -0.0353500981209619       -0.9237061927078684
N       -0.7465257815837467       -0.3618162909283614        0.0077571253276456        0.6004583993332490
O       -0.4203098578573526       -0.6696569670752711       -0.0160107508356213       -0.9958664961103404
N        0.6562424680007147       -0.3919753296043865       -0.1150908761483529        0.2492178711417901
N       -2.2132277576269477       -0.4064907651362630       -0.1881932276149774        0.8727706766843091
O       -2.1039483637385659       -0.3119638385943681       -0.2193358862524918       -0.9568843831519581
N       -1.4728184402439852        1.0497065672498358        1.0483583001650842        0.0526548832863467
O       -1.7198420567432016        1.1418279929112463       -0.6272926256743088       -0.1111286843072925
N       -1.7394194667329654        1.0468237725599363       -0.8572741726610846        0.1503626814433415

        RMSE         7.110785091E-01 kcal/mol
         MAE         4.530051588E-01 kcal/mol
     max. AE         6.030325137E+00 kcal/mol

Coordinates in bohr
s                   x[bohr]                   y[bohr]                   z[bohr]                      q[e]
+       -2.4385447375844649       -0.0914320876541964       -0.6197346617376692        0.1470442225220450
+        2.5060137538681335        0.0947951721879827       -0.0524449401164520        0.7467030853472895
+        2.2835332690290744       -0.4347279754631818        0.0447998657301449        0.1683739365190884
-        3.1432861281728650        0.3076587856347342       -0.0668020039566795       -0.9237061927078684
+       -1.4107292727866305       -0.6837336975835747        0.0146588423901025        0.6004583993332490
-       -0.7942705191805055       -1.2654682657769925       -0.0302559341422693       -0.9958664961103404
+        1.2401185364158733       -0.7407260208883524       -0.2174902354593737        0.2492178711417901
+       -4.1823943151760892       -0.7681562186353382       -0.3556336588582545        0.8727706766843091
-       -3.9758861895710176       -0.5895262159898865       -0.4144847545017803       -0.9568843831519581
+       -2.7832234845851080        1.9836579241966694        1.9811100686625196        0.0526548832863467
-       -3.2500304662887527        2.1577421889834580       -1.1854112630437792       -0.1111286843072925
+       -3.2870264094152084        1.9782102317568351       -1.6200134007578966        0.1503626814433415
