13
s                      x[A]                      y[A]                      z[A]                      q[e]
N       -1.9518090449846879        0.1674158989378107       -0.3805677546863154        0.1679002627271013
N       -1.3326627505974478       -0.1938027715105923       -0.0684835702901440        0.1837923348357194
N        1.4021594115478118        0.0226278544068611       -0.0155177726151811        0.3416504053241366
O        1.7487700006990186        0.2358984425767214       -0.0321305160948126       -0.5736126763627946
N       -0.4575588598024039       -0.3825407026178433        0.0067727007367497        0.0338269979109980
O       -0.2242748250416967       -0.7184995563225391       -0.0139371849691043       -0.7809711642012899
N        0.6493342931331217       -0.6036099541233175        0.0520130030430335        0.3077962701548649
N        0.3566102982809570       -0.0203073291097350       -0.1188066510911710        0.3890140588641131
N       -2.3160241048787600       -0.2672893877692061       -0.2107861763453092        0.8207734449615152
O       -2.2200673423189148       -0.1355957164103116       -0.2632641260976270       -0.9949841162052246
N       -1.3549577173109242        0.8952784043284430        1.2205331849098309        0.0440664849487679
N       -1.5068956858241827        0.6376622850827274       -1.1633371056896780        0.0067460524152439
N       -1.9258087926787122        0.7540279590677829       -0.9170644637248963        0.0540016446268487

        RMSE         6.903404218E-01 kcal/mol
         MAE         4.324533663E-01 kcal/mol
     max. AE         5.823087904E+00 kcal/mol

Coordinates in bohr
s                   x[bohr]                   y[bohr]                   z[bohr]                      q[e]
+       -3.6883845442124579        0.3163701980397883       -0.7191688285375559        0.1679002627271013
+       -2.5183676162284869       -0.3662341605097003       -0.1294151919419126        0.1837923348357194
+        2.6496972720584746        0.0427604476357014       -0.0293243403198218        0.3416504053241366
-        3.3046963577378397        0.4457834498920438       -0.0607178756888107       -0.5736126763627946
+       -0.8646609313032984       -0.7228971597879322        0.0127985495221434        0.0338269979109980
-       -0.4238179961637777       -1.3577673827125605       -0.0263374625514545       -0.7809711642012899
+        1.2270639778893517       -1.1406574998932342        0.0982903307139379        0.3077962701548649
+        0.6738957972688333       -0.0383752903569365       -0.2245120324451385        0.3890140588641131
+       -4.3766512581794741       -0.5051037391250968       -0.3983281443250917        0.8207734449615152
-       -4.1953192570557807       -0.2562387678007366       -0.4974970969825098       -0.9949841162052246
+       -2.5604989972931560        1.6918309902176554        2.3064734465123578        0.0440664849487679
+       -2.8476201458416495        1.2050070793399674       -2.1983885213362790        0.0067460524152439
+       -3.6392511881613605        1.4249063335760352       -1.7330006758299092        0.0540016446268487
