8
s                      x[A]                      y[A]                      z[A]                      q[e]
N       -1.3997108294042679        0.0135754330185362       -0.3202303972459526        0.3090653850997405
N        1.2956626425383888        0.1303303553746780       -0.0018959534841027        0.8692003836978603
O        1.6337525678050833        0.1967627013372743       -0.0130210628515798       -0.9780278023959386
O       -0.3905561998343619       -0.8679078826876701       -0.0334486748783235       -0.4811130147071831
N        1.0150072798775509       -0.4624623632143847       -0.0940396789501360        0.2719108265770258
N       -2.1810651602900353       -0.4585803670968215       -0.1272485441129237        0.8490163974974096
O       -2.1000390709363703       -0.3686413418091407       -0.1563683476553432       -0.9227608535772126
N       -1.3117474763422177        0.6382517504655705        0.7474624195206224        0.0827086778082980

        RMSE         8.544243646E-01 kcal/mol
         MAE         5.545756850E-01 kcal/mol
     max. AE         6.728884733E+00 kcal/mol

Coordinates in bohr
s                   x[bohr]                   y[bohr]                   z[bohr]                      q[e]
+       -2.6450701224114903        0.0256538504395306       -0.6051477478414151        0.3090653850997405
+        2.4484475453845205        0.2462886774917322       -0.0035828328315616        0.8692003836978603
-        3.0873449099150778        0.3718276172327032       -0.0246062426518588       -0.9780278023959386
-       -0.7380442542865220       -1.6401082004056780       -0.0632088347795129       -0.4811130147071831
+        1.9180857743144937       -0.8739272098071901       -0.1777092381417386        0.2719108265770258
+       -4.1216158147259456       -0.8665913003249051       -0.2404648982366649        0.8490163974974096
-       -3.9684986968306446       -0.6966311745405622       -0.2954933517589743       -0.9227608535772126
+       -2.4788434760472633        1.2061210074739790        1.4124992619660395        0.0827086778082980
