9
s                      x[A]                      y[A]                      z[A]                      q[e]
N       -1.6209603588190142        0.0029847212525870        0.0300582407149574        0.2249709032221381
N        1.3930250161660165       -0.0555620398841488       -0.0172772793872805        0.7574241979249028
O        1.7378993685676647        0.1348815783432485       -0.0177603662986529       -0.8035398205290029
N       -0.5234241111529525       -0.2290357332327648       -0.0219907191281110        0.6956853293337625
O       -0.4100599011013010       -0.6626652111250847       -0.0195203192974517       -0.9523633357473237
N        0.8950911394349560       -0.5500223805162611       -0.0457055107177125        0.1466829928809583
N       -2.2006126185327815       -0.5879518682694287        0.1028313718585129        0.4716699603048574
O       -2.0661357534140090       -0.4315838043677201        0.1216896182152808       -0.5550318714983695
N       -1.5915723125279260        1.0847835926725866        1.2541457731424281        0.0145016441080770

        RMSE         7.988286167E-01 kcal/mol
         MAE         4.865927159E-01 kcal/mol
     max. AE         6.615677236E+00 kcal/mol

Coordinates in bohr
s                   x[bohr]                   y[bohr]                   z[bohr]                      q[e]
+       -3.0631711383917866        0.0056403057282229        0.0568018427643551        0.2249709032221381
+        2.6324357664652349       -0.1049970383528058       -0.0326493262349781        0.7574241979249028
-        3.2841538401989792        0.2548892424382236       -0.0335622281922650       -0.8035398205290029
+       -0.9891282175402766       -0.4328148087533454       -0.0415564364539965        0.6956853293337625
-       -0.7749009081137818       -1.2522557618951000       -0.0368880573536730       -0.9523633357473237
+        1.6914771108560520       -1.0393916620480852       -0.0863708976806541        0.1466829928809583
+       -4.1585551572535584       -1.1110680059804789        0.1943231299177008        0.4716699603048574
-       -3.9044307119689456       -0.8155751904381610        0.2299600507384048       -0.5550318714983695
+       -3.0076357795393531        2.0499438955413898        2.3699920326397530        0.0145016441080770
