1
s                      x[A]                      y[A]                      z[A]                      q[e]
O        2.2603805716212957        0.4731875253081999       -0.0838212907319258       -0.1846776988334583

        RMSE         1.181406647E+00 kcal/mol
         MAE         8.688469318E-01 kcal/mol
     max. AE         6.270297067E+00 kcal/mol

Coordinates in bohr
s                   x[bohr]                   y[bohr]                   z[bohr]                      q[e]
-        4.2715002196700622        0.8941948288156425       -0.1583992829657164       -0.1846776988334583
