2
s                      x[A]                      y[A]                      z[A]                      q[e]
N        0.4818958030690619       -0.5138847699082782        0.1918414006556160        0.1653620823662684
N        0.5621676426811367       -0.3017414976120387       -0.4477580760521263        0.1459882315792205

        RMSE         2.619295556E-01 kcal/mol
         MAE         1.925662617E-01 kcal/mol
     max. AE         1.851596002E+00 kcal/mol

Coordinates in bohr
s                   x[bohr]                   y[bohr]                   z[bohr]                      q[e]
+        0.9106510888080869       -0.9711014751705582        0.3625277067633401        0.1653620823662684
+        1.0623428812615854       -0.5702087911722403       -0.8461401342004361        0.1459882315792205
