1
s                      x[A]                      y[A]                      z[A]                      q[e]
N        0.5110500788057162       -0.4120616201376162       -0.1100199806291775        0.3113503139454889

        RMSE         4.753294589E-01 kcal/mol
         MAE         3.420515360E-01 kcal/mol
     max. AE         2.969604556E+00 kcal/mol

Coordinates in bohr
s                   x[bohr]                   y[bohr]                   z[bohr]                      q[e]
+        0.9657446853364439       -0.7786836088725327       -0.2079076317173209        0.3113503139454889
