38
s                      x[A]                      y[A]                      z[A]                      q[e]
N        1.5819571419611340       -0.1922376609016344       -0.0952394223864749        0.3908012004296721
O        1.7755134085585276       -0.4873445264774102       -0.2026730317240947       -0.0931911889616236
O        2.0888964994381789       -0.2265404568392904        0.6251300675609062       -0.6201108588474967
N        2.3800827646768385       -0.1625694292938227        0.8805595067329280        0.4783240806380746
O        2.3263059873333769       -0.3415913274216475        0.5019593498567797       -0.7045608767507333
N        2.2424943504299018       -0.4159226153962056        0.3299483678611656        0.7706757870451855
N        2.3089914025933038       -0.2753000684829469       -0.9505789397453405        0.4331213012348976
N        2.0233732313547388       -0.4008424159282806       -0.9021136066123141        0.2880840291159862
O        2.0704946356333811       -0.3650341906879080       -0.7580547136211736       -0.9999853288109110
O        1.6226359869751661       -1.6121640111092956        0.3611978567031612       -0.4165318058396469
N        1.6188707269085272       -1.6616456798667552        0.3005214221222722        0.4337927857676465
N        0.0232400989491491        0.3038959872553273        0.2974143286855020        0.3053314308411158
O        0.4443891805659589        0.3413180932332309        0.0513065237671909       -0.9848389072050354
N        0.0112826011219413        0.2716293496938616       -0.1567375301050467        0.4801006185844933
N        0.8600388796204735        0.2454649723294616        0.0558301259893714        0.9615257420644666
O        0.7733667665219900        1.4101195887609792        0.0068384374428139       -0.3223403519783000
O        0.0951680997369663        1.5124186520533833        0.0002233729447712       -0.5277834796991236
O        0.6275943854545599        1.6682224383705146       -0.0267875239553345       -0.1802402074471642
N        0.3592706459879319        1.7383559566207525       -0.0077322329512772        0.3743607428435832
N       -1.0122234380417419       -0.4587019455693924        0.2577584386797454        0.3882429222953894
O       -0.5789908900901750       -0.7076756801042093        0.5090075980831412       -0.3890805793136488
O       -0.6126975380787435       -0.6661009650607075       -0.3994782593027949       -0.7195866268919865
N       -1.0309389951973913       -0.5681419305659151       -0.2880549947886367        0.3779360333611759
N       -0.3315113431056265       -0.4699730543158488       -0.0076308951617831        0.6963813565353540
O       -0.6327993442243465       -0.4213154161994326        0.0826343415814861       -0.8757884584527222
N       -0.4737106317768043       -1.7906758484327954        0.0005264478576341        0.2454926559757515
O       -2.3440825707074771        0.1086649836045503       -0.0757772100406496       -0.6857392806389273
O       -1.7107617580120660       -0.5054635882184083       -0.2082722042784156       -0.4696595484717753
N       -2.4836558909849074        0.0960867549875036       -0.0415995828445998        0.6368796575983743
N       -1.6306495057970336       -0.3484686137951246       -0.1655604652906462        0.6980763422646272
N       -2.1228782438611078        0.7093613803973788        1.0476457753451145        0.0687010624883847
O       -2.4829766840401026       -0.5951313264241187        0.0932047697374180       -0.9939452656703225
N       -1.8966168073850334       -0.6448478944800752       -0.0123593293434614        0.3425626186297192
N       -2.6470960589461292       -0.7305782863795639        0.0316158502816704        0.8880438888869303
O       -2.5722961870167595       -0.6132905238214220       -0.1320236895383358       -0.2960843986045722
N       -2.3672070942646304        0.3761328527504799       -0.5984950435455116        0.5449918153007854
N       -2.1749919691521336        0.5963694626034105       -0.8729862569660315        0.3968855446212630
O       -2.2623712613042972        0.4390104477211115       -0.6712804470242838       -0.9208444529388871

        RMSE         5.006786048E-01 kcal/mol
         MAE         2.834741544E-01 kcal/mol
     max. AE         3.682556811E+00 kcal/mol

Coordinates in bohr
s                   x[bohr]                   y[bohr]                   z[bohr]                      q[e]
+        2.9894657405185532       -0.3632765301027214       -0.1799764246572347        0.3908012004296721
-        3.3552340742537283       -0.9209476837832363       -0.3829965229747650       -0.0931911889616236
-        3.9474422883657305       -0.4280994197623587        1.1813246204790615       -0.6201108588474967
+        4.4977045811617176       -0.3072116977373059        1.6640163048934724        0.4783240806380746
-        4.3960812000728495       -0.6455140556585063        0.9485656973421828       -0.7045608767507333
+        4.2377001601989672       -0.7859798324829580        0.6235120507994146        0.7706757870451855
+        4.3633613769380801       -0.5202417317525541       -1.7963338567467726        0.4331213012348976
+        3.8236212568430763       -0.7574823855713050       -1.7047476505462758        0.2880840291159862
-        3.9126678055766870       -0.6898146468282945       -1.4325157968563840       -0.9999853288109110
-        3.0663376166950194       -3.0465484503161204        0.6825650262713366       -0.4165318058396469
+        3.0592223063779489       -3.1400552524983421        0.5679031826441978        0.4337927857676465
+        0.0439174221424321        0.5742801865381912        0.5620316270024948        0.3053314308411158
-        0.8397738443862887        0.6449977178742873        0.0969552783692837       -0.9848389072050354
+        0.0213210261032524        0.5133050785576105       -0.2961910054792395        0.4801006185844933
+        1.6252379397282890        0.4638615710957665        0.1055036476697171        0.9615257420644666
-        1.4614513832574489        2.6647398269014713        0.0129227738929944       -0.3223403519783000
-        0.1798416443831214        2.8580570394149913        0.0004221136894546       -0.5277834796991236
-        1.1859815063841324        3.1524835248637233       -0.0506210838547230       -0.1802402074471642
+        0.6789231258335056        3.2850166665714711       -0.0146118026161543        0.3743607428435832
+       -1.9128250756682228       -0.8668210503408155        0.4870928556303345        0.3882429222953894
-       -1.0941342114054857       -1.3373132210440610        0.9618849561542500       -0.3890805793136488
-       -1.1578305447110941       -1.2587483958678909       -0.7549045031569082       -0.7195866268919865
+       -1.9481923529777530       -1.0736326491584571       -0.5443450492207054        0.3779360333611759
+       -0.6264656459523162       -0.8881203590018704       -0.0144203019478514        0.6963813565353540
-       -1.1958174529533288       -0.7961707490502061        0.1561562741465404       -0.8757884584527222
+       -0.8951833567757603       -3.3838869330098156        0.0009948422702626        0.2454926559757515
-       -4.4296740740962663        0.2053470584399652       -0.1431981735281208       -0.6857392806389273
-       -3.2328711885495642       -0.9551877481239839       -0.3935774256316117       -0.4696595484717753
+       -4.6934294238414189        0.1815776512103508       -0.0786118185095875        0.6368796575983743
+       -3.0814809725695507       -0.6585102433907212       -0.3128639366026881        0.6980763422646272
+       -4.0116584785903697        1.3404987329277553        1.9797635918951855        0.0687010624883847
-       -4.6921459087332291       -1.1246352156220278        0.1761314883900799       -0.9939452656703225
+       -3.5840863308979150       -1.2185859131454708       -0.0233557475534765        0.3425626186297192
+       -5.0022865791869551       -1.3805928744636728        0.0597452982558358        0.8880438888869303
-       -4.8609353070211263       -1.1589511253610576       -0.2494886152999265       -0.2960843986045722
+       -4.4733730904009841        0.7107880784855642       -1.1309917197449739        0.5449918153007854
+       -4.1101391467677537        1.1269749539069100       -1.6497049369543506        0.3968855446212630
-       -4.2752620779717097        0.8296095124075226       -1.2685361982507988       -0.9208444529388871
