4
s                      x[A]                      y[A]                      z[A]                      q[e]
O       -2.0477428347058040       -0.5416597676013672       -0.0796912575153293       -0.9999995268810432
N       -2.1652637321590809       -0.5254575985400350       -0.0208543347156165        0.9884927585315672
O       -1.9735411645941909       -0.7599944633805552        0.4929111566740628       -0.1228956528305549
N       -1.4801175484223017       -0.2399234913672401       -0.2092684204754836        0.2110566499652827

        RMSE         2.456257506E-02 kcal/mol
         MAE         1.508342629E-02 kcal/mol
     max. AE         2.572495174E-01 kcal/mol

Coordinates in bohr
s                   x[bohr]                   y[bohr]                   z[bohr]                      q[e]
-       -3.8696731329626286       -1.0235886139457193       -0.1505946512973053       -0.9999995268810432
+       -4.0917554431673366       -0.9929709517814354       -0.0394089811411426        0.9884927585315672
-       -3.7294522984001102       -1.4361813926535378        0.9314670902966132       -0.1228956528305549
+       -2.7970168000022158       -0.4533896897477293       -0.3954600014058153        0.2110566499652827
