2
s                      x[A]                      y[A]                      z[A]                      q[e]
N       -2.2949540857020794       -0.0963142244372517       -1.0697169192866336        0.8964131681666256
O       -2.2334934236673205       -0.1023415168961555       -0.9954816406435150       -0.9999999411047231

        RMSE         3.870685594E-01 kcal/mol
         MAE         2.771376286E-01 kcal/mol
     max. AE         2.258621672E+00 kcal/mol

Coordinates in bohr
s                   x[bohr]                   y[bohr]                   z[bohr]                      q[e]
+       -4.3368346924774031       -0.1820075061722833       -2.0214720092202145        0.8964131681666256
-       -4.2206908737423854       -0.1933974381976488       -1.8811876637376717       -0.9999999411047231
