3
s                      x[A]                      y[A]                      z[A]                      q[e]
O        0.3043531241107938       -0.6861694128041430       -0.4157921696855432       -0.6728660269984529
O        0.2878638534243649       -0.6663415413530888        0.4043391425678941       -0.7367021470184796
N        0.1686217228397635       -0.6680859723619409       -0.0149615616300201        0.9999999989492346

        RMSE         6.832533413E-01 kcal/mol
         MAE         5.088227429E-01 kcal/mol
     max. AE         3.359122697E+00 kcal/mol

Coordinates in bohr
s                   x[bohr]                   y[bohr]                   z[bohr]                      q[e]
-        0.5751440499968759       -1.2966722658660463       -0.7857333258155654       -0.6728660269984529
-        0.5439838443909852       -1.2592030191727697        0.7640902412557670       -0.7367021470184796
+        0.3186488749700100       -1.2624995160242563       -0.0282732538898965        0.9999999989492346
