3
s                      x[A]                      y[A]                      z[A]                      q[e]
N       -1.4226369547037780       -1.3932010415540039        0.0637566585676803        0.5910430100709390
N       -1.6983370563144233       -1.6943044205732396        0.0487578633239483        0.3793350799238570
O       -1.5659750780370567       -1.4534769052821588        0.0626617370901112       -0.9999999919410612

        RMSE         4.934739965E-02 kcal/mol
         MAE         3.269495439E-02 kcal/mol
     max. AE         3.784664743E-01 kcal/mol

Coordinates in bohr
s                   x[bohr]                   y[bohr]                   z[bohr]                      q[e]
+       -2.6883942203454945       -2.6327684062396584        0.1204826233672401        0.5910430100709390
+       -3.2093919051505084       -3.2017713280359388        0.0921390081447672        0.3793350799238570
-       -2.9592640167824871       -2.7466732806612888        0.1184135216457529       -0.9999999919410612
