1
s                      x[A]                      y[A]                      z[A]                      q[e]
O       -0.4607068460437750        1.4117128054480936        0.0213555607530973       -0.6491188038984744

        RMSE         1.228137382E+00 kcal/mol
         MAE         8.482772445E-01 kcal/mol
     max. AE         7.316816126E+00 kcal/mol

Coordinates in bohr
s                   x[bohr]                   y[bohr]                   z[bohr]                      q[e]
-       -0.8706097631461992        2.6677505700986268        0.0403561610789298       -0.6491188038984744
