1
s                      x[A]                      y[A]                      z[A]                      q[e]
N        0.6164863779592722       -2.0114356620352125        0.0066516238300702        0.1259522066616935

        RMSE         3.333850383E+00 kcal/mol
         MAE         2.920260386E+00 kcal/mol
     max. AE         1.035772781E+01 kcal/mol

Coordinates in bohr
s                   x[bohr]                   y[bohr]                   z[bohr]                      q[e]
+        1.1649904144185057       -3.8010625202255035        0.0125697473284015        0.1259522066616935
