1
s                      x[A]                      y[A]                      z[A]                      q[e]
N        1.8653059937214780        0.8217603425227921        0.9105531267345550        0.0432218476100319

        RMSE         1.872154484E+00 kcal/mol
         MAE         1.487959143E+00 kcal/mol
     max. AE         7.416419024E+00 kcal/mol

Coordinates in bohr
s                   x[bohr]                   y[bohr]                   z[bohr]                      q[e]
+        3.5249174683085527        1.5529019881304935        1.7206960322076015        0.0432218476100319
