3
s                      x[A]                      y[A]                      z[A]                      q[e]
O       -2.6449929609304506       -0.1379273385003675       -0.6206027267814674       -0.0642108612605240
N       -2.3913604835563169       -0.0776835926393428       -1.1214858625511148        0.1852795940908100
O       -1.9990628443904470       -0.0855575440678293       -0.9116470089672949       -0.2246555250182828

        RMSE         1.797126293E-01 kcal/mol
         MAE         1.187718745E-01 kcal/mol
     max. AE         1.260071936E+00 kcal/mol

Coordinates in bohr
s                   x[bohr]                   y[bohr]                   z[bohr]                      q[e]
-       -4.9983122999223291       -0.2606448949790099       -1.1727691863293055       -0.0642108612605240
+       -4.5190163811638371       -0.1468007145299894       -2.1193011337944485        0.1852795940908100
-       -3.7776812834766647       -0.1616803262549865       -1.7227631700409840       -0.2246555250182828
