4
s                      x[A]                      y[A]                      z[A]                      q[e]
O        0.3449509596819548       -1.2909537036090972        0.1483377801828617       -0.9999991590728285
O        0.4418812888477837       -1.5383690609999601        0.3571000955277330       -0.8740484481831995
N        0.4647289962802943       -1.5482418967891352        0.1391384461545499        0.9999999979797040
N        0.3895776735195011       -1.4215302417863807        0.3236200911008764        0.9999998159380177

        RMSE         8.918436273E-02 kcal/mol
         MAE         5.415385423E-02 kcal/mol
     max. AE         7.008416875E-01 kcal/mol

Coordinates in bohr
s                   x[bohr]                   y[bohr]                   z[bohr]                      q[e]
-        0.6518628405127399       -2.4395489404666528        0.2803177786039742       -0.9999991590728285
-        0.8350346158866337       -2.9070962051676519        0.6748213799222431       -0.8740484481831995
+        0.8782105255286661       -2.9257531608908112        0.2629335567538602        0.9999999979797040
+        0.7361951075448816       -2.6863028360321066        0.6115533408763686        0.9999998159380177
