3
s                      x[A]                      y[A]                      z[A]                      q[e]
N       -2.4638385676355039       -0.2662112376390489        1.0577819857262865        0.5544303623095791
N       -2.2145647899078624       -0.5587054529070408        0.7528051617631472        0.4383172803806599
O       -2.3515733023251895       -0.3609477628548111        0.8902436431485681       -0.9999999995038540

        RMSE         1.976165875E-01 kcal/mol
         MAE         1.370388466E-01 kcal/mol
     max. AE         9.308943864E-01 kcal/mol

Coordinates in bohr
s                   x[bohr]                   y[bohr]                   z[bohr]                      q[e]
+       -4.6559801101714058       -0.5030663306569730        1.9989182534656231        0.5544303623095791
+       -4.1849209400079141       -1.0558002907941832        1.4225955815633256        0.4383172803806599
-       -4.4438295053330501       -0.6820924173922931        1.6823166704806050       -0.9999999995038540
