2
s                      x[A]                      y[A]                      z[A]                      q[e]
O        0.2851398420502489        1.3712331119933183       -0.0029736055873618       -0.2854715609907012
N        0.2474992608653452        0.1454755428385062        0.0217029137236924        0.4425247999590200

        RMSE         7.186782803E-01 kcal/mol
         MAE         5.129237015E-01 kcal/mol
     max. AE         5.453716810E+00 kcal/mol

Coordinates in bohr
s                   x[bohr]                   y[bohr]                   z[bohr]                      q[e]
-        0.5388362089312739        2.5912550358266135       -0.0056193001652450       -0.2854715609907012
+        0.4677058192887452        0.2749089339170847        0.0410125630622188        0.4425247999590200
