4
s                      x[A]                      y[A]                      z[A]                      q[e]
N        0.9091156825688723        1.0704466028726500        0.0044035331444321        0.9868919038514983
O       -0.0098669827214889        1.2924829983420614       -0.0179612272727884       -0.1269428350362422
O        0.8643081060825463        1.1998832627494971        0.0044059961786390       -0.9999999778532289
N       -0.0442821751478696       -0.0767951547082902        0.0290160543704574        0.2971041480062916

        RMSE         4.658935223E-01 kcal/mol
         MAE         3.124904927E-01 kcal/mol
     max. AE         3.356516333E+00 kcal/mol

Coordinates in bohr
s                   x[bohr]                   y[bohr]                   z[bohr]                      q[e]
+        1.7179796564138239        2.0228509113560276        0.0083214716273528        0.9868919038514983
-       -0.0186458950282385        2.4424388886770600       -0.0339418004226740       -0.1269428350362422
-        1.6333056085091637        2.2674507491173044        0.0083261260874416       -0.9999999778532289
+       -0.0836811832690285       -0.1451218101608317        0.0548323960015582        0.2971041480062916
