8
s                      x[A]                      y[A]                      z[A]                      q[e]
N        0.6165346872462202        0.8441202424608139       -0.0877558291927133        0.9999999998806395
O        0.6121840596421377        0.9281103990760567       -0.1791694429862392       -0.5492421913517715
N        0.4986382329971634        1.7958184473218231       -0.0084432527646064        0.2368195175494232
O        0.5100822111232254        1.3175169746973623        0.0042342930630243       -0.9988960907350275
N        0.5322430887280799       -0.5024097297292651       -0.1235950947023006        0.6871684915385224
O        0.6375689207728170       -0.2722389209256332       -0.2806909336296458       -0.8974368551572900
O        0.7958762758693539       -0.2731739554873854        0.3759948262888242       -0.3191020624323628
N        0.5948417481998601        0.2405116024756086       -0.0419408316724784        0.9977424296761854

        RMSE         8.231831769E-02 kcal/mol
         MAE         5.397331223E-02 kcal/mol
     max. AE         7.880479773E-01 kcal/mol

Coordinates in bohr
s                   x[bohr]                   y[bohr]                   z[bohr]                      q[e]
+        1.1650817057401535        1.5951560752059963       -0.1658344830866850        0.9999999998806395
-        1.1568602110945809        1.7538744684431153       -0.3385811772948230       -0.5492421913517715
+        0.9422896960468674        3.3936050364831614       -0.0159554353331208        0.2368195175494232
-        0.9639156804908546        2.4897462478197658        0.0080016542240419       -0.9988960907350275
+        1.0057936698638215       -0.9494167919535987       -0.2335608794373719        0.6871684915385224
-        1.2048306463643446       -0.5144570012396168       -0.5304289904590909       -0.8974368551572900
-        1.5039881911423998       -0.5162239604791661        0.7105272462749690       -0.3191020624323628
+        1.1240879920862827        0.4545010586738852       -0.0792566853349116        0.9977424296761854
