3
s                      x[A]                      y[A]                      z[A]                      q[e]
N        1.8557855304899160       -1.8784059040309451       -0.0802473682971899        0.4297633085964362
O        1.9370746108994374       -1.6142603989870652       -0.1145322766038290       -0.9999999859180222
N        2.0166854483475394       -1.4590092081265287       -0.1245953607131320        0.6469380269997186

        RMSE         2.675351460E-01 kcal/mol
         MAE         1.955912310E-01 kcal/mol
     max. AE         1.866478331E+00 kcal/mol

Coordinates in bohr
s                   x[bohr]                   y[bohr]                   z[bohr]                      q[e]
+        3.5069264002134091       -3.5496727110615067       -0.1516455483704360        0.4297633085964362
-        3.6605404991777242       -3.0505100492578343       -0.2164346353064180       -0.9999999859180222
+        3.8109831785729789       -2.7571278178802392       -0.2354511082504475        0.6469380269997186
