1
s                      x[A]                      y[A]                      z[A]                      q[e]
N       -0.7851237295635856       -1.2552012811292552        0.0372436838542086        0.0131377604283933

        RMSE         3.364771098E+00 kcal/mol
         MAE         2.815757806E+00 kcal/mol
     max. AE         1.233626315E+01 kcal/mol

Coordinates in bohr
s                   x[bohr]                   y[bohr]                   z[bohr]                      q[e]
+       -1.4836688234731943       -2.3719866536580896        0.0703803623875900        0.0131377604283933
