2
s                      x[A]                      y[A]                      z[A]                      q[e]
N        1.3388280734932965       -1.0882217272282033        0.0383730348330204        0.7893154554464545
O        1.2800818409508301       -0.9287421546533278        0.0323644181145753       -0.9999999982312472

        RMSE         9.308723980E-01 kcal/mol
         MAE         6.781854953E-01 kcal/mol
     max. AE         5.787207440E+00 kcal/mol

Coordinates in bohr
s                   x[bohr]                   y[bohr]                   z[bohr]                      q[e]
+        2.5300183879766553       -2.0564410282339782        0.0725145264370619        0.7893154554464545
-        2.4190040975689362       -1.7550683134623881        0.0611598864463536       -0.9999999982312472
