11
s                      x[A]                      y[A]                      z[A]                      q[e]
N        1.7979491189204577        0.7151799073874203       -0.6225417218287717        0.5408771280449167
N        1.8223588988418256        0.9904326433667967       -0.9614416573827589        0.4031404083059443
O        1.7839603741595353        0.7699740729059477       -0.7414995863330861       -0.9999999800348078
N        2.2713751491227758       -0.1284641748109862       -0.0978267813661977        0.9974459321196528
O        2.3188658544110154       -0.3159575892561128       -0.1740575473092332       -0.4816382765952091
O        2.4381937592146103       -0.0413728708025550        0.0552192509414299       -0.2875638668064259
N        3.3119181764179677       -0.4156655809378073        0.1019561570537171        0.0690556559343194
O        1.6335836740730452        0.1537937660615381       -0.0917708295719458       -0.9108770502160680
N        1.8400021533365436       -0.3537624403755121       -0.0226714979969313        0.6658706287872328
N        1.5165475578902599        0.2149594266870598       -0.3131151875696272        0.9999968462366932
O        1.6799508688211406       -0.2365804442038645       -0.1456483837087556       -0.9907625351666445

        RMSE         8.401648721E-02 kcal/mol
         MAE         5.287348471E-02 kcal/mol
     max. AE         6.837076044E-01 kcal/mol

Coordinates in bohr
s                   x[bohr]                   y[bohr]                   z[bohr]                      q[e]
+        3.3976314222678723        1.3514941553925182       -1.1764333559273297        0.5408771280449167
+        3.4437592211019572        1.8716464416764917       -1.8168614180596736        0.4031404083059443
-        3.3711965258307961        1.4550401214955397       -1.4012311403098052       -0.9999999800348078
+        4.2922769600129795       -0.2427621073257021       -0.1848658245171548        0.9974459321196528
-        4.3820213865125845       -0.5970733109539499       -0.3289210944833699       -0.4816382765952091
-        4.6075184457160825       -0.0781833948407796        0.1043492611322318       -0.2875638668064259
+        6.2586183033556821       -0.7854941077517797        0.1926692136356907        0.0690556559343194
-        3.0870257470172193        0.2906280976590380       -0.1734217341970437       -0.9108770502160680
+        3.4771001400587274       -0.6685141257833225       -0.0428429220680660        0.6658706287872328
+        2.8658595406444922        0.4062144445239735       -0.5917019502279527        0.9999968462366932
-        3.1746470462968861       -0.4470722461844608       -0.2752355558251418       -0.9907625351666445
