12
s                      x[A]                      y[A]                      z[A]                      q[e]
O        2.1334922808108536        0.7818267079431922       -0.9246281903418644       -0.4260813810703654
O        1.7488506424940968        0.7169623722603660       -1.1519554210323901       -0.2673828046093939
N        1.9148997704248574        0.8481263077086356       -0.9502040807724635        0.9621328710808899
O        1.7542942289110337        0.9999438187880505       -0.6960126878752344       -0.2673241395199352
N        2.6006976646585107       -0.1355040118598286       -0.1006420314898152        0.9541645891949827
O        2.7554940617506127       -0.2463105198687912       -0.1661264488182245       -0.4306183691338462
O        2.6945075900559345       -0.0659106397353949        0.0617110806855461       -0.3708570717408053
N        3.3040006978314849       -0.3645937534959067        0.1005517866689513        0.0987497295163107
O        1.5780829782052923        0.1929605962781190       -0.0844535944029570       -0.9757323121751705
N        1.9320186720916208       -0.3942843141287181       -0.0222897492365419        0.6000191455270354
N        1.5268243996844209        0.3226901029649381       -0.2611872527022265        0.8173453873333364
O        1.8831259101594269       -0.3894472250063711       -0.1488915722477282       -0.6888707537934347

        RMSE         6.386650201E-02 kcal/mol
         MAE         3.654235634E-02 kcal/mol
     max. AE         8.778349871E-01 kcal/mol

Coordinates in bohr
s                   x[bohr]                   y[bohr]                   z[bohr]                      q[e]
-        4.0317161015108791        1.4774383555809376       -1.7472940476238146       -0.4260813810703654
-        3.3048487486448028        1.3548625258306344       -2.1768802544876795       -0.2673828046093939
+        3.6186361238050502        1.6027264413650937       -1.7956254759523647        0.9621328710808899
-        3.3151356361130762        1.8896199583538473       -1.3152733599279554       -0.2673241395199352
+        4.9146063213223492       -0.2560654713158654       -0.1901858762254532        0.9541645891949827
-        5.2071291170340386       -0.4654594243711542       -0.3139334904613316       -0.4306183691338462
-        5.0918813881731113       -0.1245530578536147        0.1166170414017124       -0.3708570717408053
+        6.2436564372230521       -0.6889823411599463        0.1900153382297794        0.0987497295163107
-        2.9821446320548373        0.3646426799706819       -0.1595941637320869       -0.9757323121751705
+        3.6509861595238768       -0.7450893692672597       -0.0421215214621969        0.6000191455270354
+        2.8852799570701149        0.6097959179995202       -0.4935723750679532        0.8173453873333364
-        3.5585922299548201       -0.7359485955815928       -0.2813642939370237       -0.6888707537934347
