3
s                      x[A]                      y[A]                      z[A]                      q[e]
N        2.8731010272598638       -0.2728317723377730        0.0790391127787959        0.1876662917510322
N        1.7985595351048136        0.5358014391751127       -0.5711572504572076        0.8178785988585543
O        1.8212244681172758        0.2938077832160375       -0.3503218229776191       -0.9999999999999827

        RMSE         3.163281747E-01 kcal/mol
         MAE         1.946750004E-01 kcal/mol
     max. AE         3.181378744E+00 kcal/mol

Coordinates in bohr
s                   x[bohr]                   y[bohr]                   z[bohr]                      q[e]
+        5.4293740722926884       -0.5155773280416520        0.1493622763510983        0.1876662917510322
+        3.3987849416788523        1.0125179776671138       -1.0793307779336452        0.8178785988585543
-        3.4416154577242533        0.5552162438061959       -0.6620123011988193       -0.9999999999999827
