6
s                      x[A]                      y[A]                      z[A]                      q[e]
N        1.9598280008627331        1.2333117493040120       -1.1462655985376164        0.0701860510570714
N        3.0063822907175104       -0.4799146973414421       -0.1230438563042890        0.8601216921828143
O        3.0041695955499463       -0.5141852669624957       -0.1502642642103661       -0.7373600368507440
N        1.7893767713419850       -0.2917569631506715        0.1099928957869635        0.3903148420684455
N        1.4301536401958657        0.1996989643831956       -0.3482236226166013        0.4222823380409673
O        1.6206602096197271       -0.0735995553121321       -0.0741442551939499       -0.9999999958889507

        RMSE         1.472968745E-01 kcal/mol
         MAE         9.339018693E-02 kcal/mol
     max. AE         1.217469318E+00 kcal/mol

Coordinates in bohr
s                   x[bohr]                   y[bohr]                   z[bohr]                      q[e]
+        3.7035381746340938        2.3306214334938868       -2.1661280482700884        0.0701860510570714
+        5.6812391578826311       -0.9069073415573097       -0.2325191898352938        0.8601216921828143
-        5.6770577700168108       -0.9716693323045360       -0.2839583058010265       -0.7373600368507440
+        3.3814320330923273       -0.5513407555500608        0.2078564487833852        0.3903148420684455
+        2.7025986972967422        0.3773763502217972       -0.6580472771601589        0.4222823380409673
-        3.0626039386083583       -0.1390830024954146       -0.1401123360926195       -0.9999999958889507
