8
s                      x[A]                      y[A]                      z[A]                      q[e]
N        1.5747066992934520        0.8904170439925425       -0.7147190826959098        0.6430296988684469
N        1.8989704231194939        1.1576027010221766       -1.0093226710195893        0.2036471635032522
O        1.6731603397418635        0.8820865724990611       -0.7168950633185482       -0.9849154113741690
N        3.3354169027915703       -0.3512779837459050        0.0439756457403015        0.0620582067154127
O        1.6472317261962122        0.1478654121805504       -0.0550347710323976       -0.9367336926883210
N        1.9797657005910123       -0.3951362244102319       -0.0060343944193350        0.5748248599382280
N        1.6789409513809295        0.3519376754267193       -0.3046543398682072        0.9379504122459186
O        1.8983637872469572       -0.4323203432287950       -0.1793600634163415       -0.4943163465991645

        RMSE         9.922871640E-02 kcal/mol
         MAE         6.403769734E-02 kcal/mol
     max. AE         8.198169034E-01 kcal/mol

Coordinates in bohr
s                   x[bohr]                   y[bohr]                   z[bohr]                      q[e]
+        2.9757643895883001        1.6826443505856399       -1.3506233229337146        0.6430296988684469
+        3.5885340200406137        2.1875520670221542       -1.9073434204425945        0.2036471635032522
-        3.1618148060900952        1.6669020409670263       -1.3547353303648046       -0.9849154113741690
+        6.3030244604988637       -0.6638191831827869        0.0831019266393260        0.0620582067154127
-        3.1128168276759780        0.2794251324491762       -0.1040006446285115       -0.9367336926883210
+        3.7412149666921564       -0.7466992463827824       -0.0114033527855343        0.5748248599382280
+        3.1727385789255638        0.6650658197867690       -0.5757132652830594        0.9379504122459186
-        3.5873876443836412       -0.8169670471663492       -0.3389413977016335       -0.4943163465991645
