2
s                      x[A]                      y[A]                      z[A]                      q[e]
N       -1.0378850102045427       -0.6244670790741187       -0.0971044716474757        0.6290813008611071
O       -1.2045558327692298       -0.8429393466093728       -0.1630666192353424       -0.9999999999548271

        RMSE         8.292932567E-01 kcal/mol
         MAE         6.388089386E-01 kcal/mol
     max. AE         4.434916108E+00 kcal/mol

Coordinates in bohr
s                   x[bohr]                   y[bohr]                   z[bohr]                      q[e]
+       -1.9613184190045889       -1.1800717538147014       -0.1835008569710138        0.6290813008611071
-       -2.2762806267566242       -1.5929245054640833       -0.3081512505591106       -0.9999999999548271
