3
s                      x[A]                      y[A]                      z[A]                      q[e]
O       -1.1754334370993240       -0.7388977229511788       -0.3016855455690661       -0.6990557449730901
N       -1.0411770407435121       -0.6226976987358437       -0.0945309501387016        0.9999999995626523
O       -1.1539246212326928       -0.8377443997597401        0.0190643151814019       -0.6718629536832822

        RMSE         5.523543258E-01 kcal/mol
         MAE         3.747682804E-01 kcal/mol
     max. AE         3.532762361E+00 kcal/mol

Coordinates in bohr
s                   x[bohr]                   y[bohr]                   z[bohr]                      q[e]
-       -2.2212472748232832       -1.3963143311021429       -0.5701030571348623       -0.6990557449730901
+       -1.9675394551198846       -1.1767281095635918       -0.1786376061414557        0.9999999995626523
-       -2.1806015035524484       -1.5831074786819677        0.0360263344622575       -0.6718629536832822
