22
s                      x[A]                      y[A]                      z[A]                      q[e]
N        1.6081556344899504       -0.1707217963620810       -0.1861597312257355        0.4413823510281593
O        1.8358640644965329       -0.0417075356755632       -0.2445676568353521       -0.2417782961145128
O        2.1454694018235809       -0.2790791396331074        0.8825115104163511       -0.8230706270811479
N        2.2647323623181403       -0.2361136545679765        0.9793856640742741        0.7001475436919901
N        2.2766858799040102       -0.2953621895524852       -1.0039083434453187        0.3497916801266752
O        2.0315901732998287       -0.4095470215240080       -0.7998381722019251       -0.4979853644884645
N        1.7002019565534054       -2.0087079132289647       -0.0767502102675741        0.0347754928765071
N        1.0163032974581871        0.3258871775486556        0.0452739896257767        0.5595737518508672
N       -0.0672144084671993        0.2968179054450005       -0.0082278348902078        0.4214653795954856
O        0.7291184221103786        1.1869955855486951        0.0040254646540365       -0.6147738312135325
O       -0.1201930240078349        1.3606787607469379        0.0036333596032887       -0.2617645511121874
N       -1.1242176721981030       -0.5894283232821950       -0.0132687679307123        0.4356733981254948
O       -0.5469380092348738       -0.6810594793494829        0.3815540517750291       -0.5169140335413431
O       -0.4917286435012370       -0.6754417122097636       -0.2499803440751654       -0.9981734702710212
N       -0.1274540387525373       -0.5966516341049396       -0.0747248147537465        0.5220029853556963
N       -0.4662927698332210       -1.7601231051043984       -0.0043944470861275        0.2799449968762858
O       -2.0188354088551446       -0.5084514973777394       -0.2230962623678091       -0.9997468348789230
N       -1.7623912478346981       -0.4899438982871253       -0.1707858038714790        0.9545312703735467
N       -2.1206788266252405        0.6666068701079808        1.1374292355858957        0.0506406915741338
N       -2.5679189004653278       -0.7665576236599467        0.1289328898929974        0.6325466603795545
O       -2.5244243484170217       -0.7239261939393680        0.2996045013388656       -0.4790284869135879
N       -2.1710305388046223        0.6907803390560311       -1.2282607554226979        0.0507592937603237

        RMSE         5.193661433E-01 kcal/mol
         MAE         3.022136667E-01 kcal/mol
     max. AE         4.038353902E+00 kcal/mol

Coordinates in bohr
s                   x[bohr]                   y[bohr]                   z[bohr]                      q[e]
+        3.0389737162978694       -0.3226174387705157       -0.3517909076054797        0.4413823510281593
-        3.4692802854682934       -0.0788158197945762       -0.4621658905637697       -0.2417782961145128
-        4.0543495799963996       -0.5273831412349763        1.6677050572510270       -0.8230706270811479
+        4.2797239122424138       -0.4461901416144302        1.8507706763000200        0.7001475436919901
+        4.3023127867155511       -0.5581536460697584       -1.8971118241737088        0.3497916801266752
-        3.8391490267080832       -0.7739317061773573       -1.5114750901484151       -0.4979853644884645
+        3.2129160558534857       -3.7959078220426510       -0.1450368774770164        0.0347754928765071
+        1.9205348925956747        0.6158375133654083        0.0855554409995369        0.5595737518508672
+       -0.1270168236876603        0.5609045504230888       -0.0155483545479792        0.4214653795954856
-        1.3778341308145710        2.2430965688144817        0.0076070257238398       -0.6147738312135325
-       -0.2271318975653855        2.5713102025390704        0.0068660545655177       -0.2617645511121874
+       -2.1244635058541399       -1.1138581015911664       -0.0250743374113041        0.4356733981254948
-       -1.0335630450570359       -1.2870158911174239        0.7210326599135614       -0.5169140335413431
-       -0.9292324642602262       -1.2763998497867579       -0.4723943870497770       -0.9981734702710212
+       -0.2408532268257841       -1.1275081807652092       -0.1412094346601514        0.5220029853556963
+       -0.8811656292659316       -3.3261506157377365       -0.0083043014655971        0.2799449968762858
-       -3.8150460151129026       -0.9608340781228666       -0.4215908354884429       -0.9997468348789230
+       -3.3304367843114511       -0.9258597846018335       -0.3227383954332505        0.9545312703735467
+       -4.0075021823789694        1.2597044178527244        2.1494297423461939        0.0506406915741338
+       -4.8526634342662698       -1.4485839680990711        0.2436478504615747        0.6325466603795545
-       -4.7704706429455008       -1.3680222415904741        0.5661704534848192       -0.4790284869135879
+       -4.1026531283458798        1.3053856536667985       -2.3210764383968399        0.0507592937603237
