2
s                      x[A]                      y[A]                      z[A]                      q[e]
N       -2.1259864532222505       -0.1048418315969857       -0.2198180518645756        0.0630284807019572
N        0.7389979981061530       -1.9411201465552861       -0.0640025223458982        0.1395779879800223

        RMSE         1.604388214E+00 kcal/mol
         MAE         1.263285101E+00 kcal/mol
     max. AE         7.639521059E+00 kcal/mol

Coordinates in bohr
s                   x[bohr]                   y[bohr]                   z[bohr]                      q[e]
+       -4.0175321430235140       -0.1981223482096739       -0.4153959154557323        0.0630284807019572
+        1.3965038236822318       -3.6681854535980523       -0.1209472385722423        0.1395779879800223
