3
s                      x[A]                      y[A]                      z[A]                      q[e]
O       -1.8047254787663911       -0.5094095297021130        0.1315609296860388       -0.9798634177365295
N       -1.9098998010669419       -0.4128877285116064        0.0855400079757079        0.9999999999999704
N        0.5761492417100300       -1.9367197624262176        0.0080334809480803        0.1824698864185387

        RMSE         3.743886499E-01 kcal/mol
         MAE         2.486561169E-01 kcal/mol
     max. AE         3.371225455E+00 kcal/mol

Coordinates in bohr
s                   x[bohr]                   y[bohr]                   z[bohr]                      q[e]
-       -3.4104368865042360       -0.9626444968352684        0.2486141259172279       -0.9798634177365295
+       -3.6091875510829090       -0.7802447274493216        0.1616471878435662        0.9999999999999704
+        1.0887642742221608       -3.6598699327473017        0.0151810788259551        0.1824698864185387
