4
s                      x[A]                      y[A]                      z[A]                      q[e]
O       -1.8456577478843821       -0.5506632386585725        0.1384309017413790       -0.9680389138642074
N       -1.9349392725484453       -0.4505346592248954        0.0918874182246648        0.9999999386998349
O        0.5029853216417509       -1.5526365621915472        0.0325786030857418       -0.8293545072691898
N        0.5251033610082737       -1.6399284486098229        0.0272128612224500        0.9999999511155417

        RMSE         3.321577371E-01 kcal/mol
         MAE         2.345169404E-01 kcal/mol
     max. AE         2.034155173E+00 kcal/mol

Coordinates in bohr
s                   x[bohr]                   y[bohr]                   z[bohr]                      q[e]
-       -3.4877876648307744       -1.0406027084223235        0.2615964915913694       -0.9680389138642074
+       -3.6565052945091621       -0.8513871159615246        0.1736420548200188        0.9999999386998349
-        0.9505045030282254       -2.9340578749143948        0.0615646373820473       -0.8293545072691898
+        0.9923015398630484       -3.0990156332195076        0.0514248548005220        0.9999999511155417
