5
s                      x[A]                      y[A]                      z[A]                      q[e]
O       -2.0484355908293885       -0.4962987761130438        0.1429272052167254       -0.9999961360806575
N       -1.5301766058069066       -0.1863564619787352       -0.0031085720419353        0.2774017112372922
N       -2.2355880033789752       -0.4726431985593294        0.1277078388431217        0.7971456217617034
O        0.3673668026472758       -1.2516052864282163        0.0139836945318295       -0.3776843942929022
N        0.5020958116756981       -1.5932155980299112        0.0092730770539046        0.5057396660565436

        RMSE         1.372907880E-01 kcal/mol
         MAE         8.439911809E-02 kcal/mol
     max. AE         1.497827072E+00 kcal/mol

Coordinates in bohr
s                   x[bohr]                   y[bohr]                   z[bohr]                      q[e]
-       -3.8709822523079378       -0.9378687632535645        0.2700932737367184       -0.9999961360806575
+       -2.8916147085576962       -0.3521626748491044       -0.0058743498005130        0.2774017112372922
+       -4.2246490557453527       -0.8931662003375165        0.2413328394876050        0.7971456217617034
-        0.6942226445884672       -2.3651912085245286        0.0264253528872200       -0.3776843942929022
+        0.9488235728065203       -3.0107411390840406        0.0175235759721470        0.5057396660565436
