7
s                      x[A]                      y[A]                      z[A]                      q[e]
O       -1.7681197386879195       -0.5279519321955330       -0.2439164696160595       -0.5694643056751556
N       -2.3285389626688895       -0.5014346379011198       -0.0012654794919976        0.2277778041029470
O       -1.8798136721142222       -0.7897053312643019        0.5000067398909609       -0.1193787149531616
N       -1.6093313386138910       -0.3995085498643033       -0.2322471455143000        0.5305019170959788
N        0.2552524987157204       -1.9501110683101974       -0.0118380779601743        0.0699245702336897
O        0.4939243482326318       -1.2303227646700252       -0.0000714289804362       -0.3863967327218428
N        0.6326623575773284       -1.5014634284773374        0.0058208976329764        0.4496419305995241

        RMSE         5.121802438E-02 kcal/mol
         MAE         3.148394336E-02 kcal/mol
     max. AE         6.990374743E-01 kcal/mol

Coordinates in bohr
s                   x[bohr]                   y[bohr]                   z[bohr]                      q[e]
-       -3.3412620631362295       -0.9976845592558388       -0.4609353250629082       -0.5694643056751556
+       -4.4003009119018710       -0.9475741354512321       -0.0023914096572590        0.2277778041029470
-       -3.5523330071870616       -1.4923267959034798        0.9448757992769456       -0.1193787149531616
+       -3.0411954750966883       -0.7549617440223455       -0.4388834984413786        0.5305019170959788
+        0.4823573154114875       -3.6851758333302556       -0.0223707251965480        0.0699245702336897
-        0.9333817448549344       -2.3249730711424501       -0.0001349812104451       -0.3863967327218428
+        1.1955585857076199       -2.8373546672131056        0.0109999023306511        0.4496419305995241
