4
s                      x[A]                      y[A]                      z[A]                      q[e]
N        1.9247296074220170       -0.2313433766174490       -0.0939060942435962        0.9999999977995486
N        2.4309114912016621       -0.1290677241808486        0.2329766014595119        0.1227984392736164
O        1.8816095499120633       -0.6499162888205074       -0.1130660396326173       -0.2116758074130662
O        1.9179584933789011        0.1089564273871821       -0.0567687326825977       -0.7010463139889482

        RMSE         3.899724680E-02 kcal/mol
         MAE         2.562070809E-02 kcal/mol
     max. AE         3.072109858E-01 kcal/mol

Coordinates in bohr
s                   x[bohr]                   y[bohr]                   z[bohr]                      q[e]
+        3.6372118235875748       -0.4371756227456229       -0.1774567996318287        0.9999999977995486
+        4.5937569535994278       -0.2439026503379346        0.4402619703984159        0.1227984392736164
-        3.5557267243797712       -1.2281637903447082       -0.2136638489958071       -0.2116758074130662
-        3.6244162724818443        0.2058978073701068       -0.1072773572594365       -0.7010463139889482
