6
s                      x[A]                      y[A]                      z[A]                      q[e]
N        1.1338246435195460       -0.6008106683863235        0.1658597554123524        0.3039870249371014
O        1.2266028991826279       -0.7399427512409744        0.0367368031016970       -0.9999999875146204
N        0.8311099224015147       -0.3862241926997795       -0.0025326904463010        0.9999997901365795
O        0.4149179580541725        0.2985571601927673        0.0202241888049452       -0.9997871270254035
N        0.8997564258706220        0.4055363255118725       -0.1192424666372863        0.1727549446253630
N        0.0290061377123529        0.3855494897046962        0.0102008427366574        0.5774743625640031

        RMSE         3.237848572E-01 kcal/mol
         MAE         2.092543381E-01 kcal/mol
     max. AE         2.584092416E+00 kcal/mol

Coordinates in bohr
s                   x[bohr]                   y[bohr]                   z[bohr]                      q[e]
+        2.1426180505467949       -1.1353676165034150        0.3134295129647677        0.3039870249371014
-        2.3179435441477265       -1.3982891483632121        0.0694224965870769       -0.9999999875146204
+        1.5705701334893707       -0.7298579472286320       -0.0047860913040725        0.9999997901365795
-        0.7840813052565851        0.5641912655587704        0.0382181779508967       -0.9997871270254035
+        1.7002932245162741        0.7663525891419554       -0.2253356044685134        0.1727549446253630
+        0.0548136562336608        0.7285829433518983        0.0192767990211481        0.5774743625640031
