8
s                      x[A]                      y[A]                      z[A]                      q[e]
N        1.6978188849799811       -1.1654877753989288        0.0273561229891782        0.4844664243256026
O        1.3793869645617878       -0.6402773326408870       -0.0156026459106898       -0.8591906742807199
N        1.1017833710774585       -0.5763520261555418        0.0252332118083551        0.9988142167569625
O        1.4548131624269560       -0.9948417595209677        0.0350986278257947       -0.9989077555068347
O        0.5368795791354700        0.3274395820131901       -0.1690251307241246       -0.9501991572984190
N        0.2121391244914014        0.4588851545729090       -0.0339327820305171        0.7171111576652400
O        0.5727703460786756        0.3947926545240942        0.4336847688171439       -0.3298866363874070
N        0.9770759885183545       -0.1256662547980841       -0.0338338137483444        0.9922214324485987

        RMSE         4.960396947E-02 kcal/mol
         MAE         3.048074116E-02 kcal/mol
     max. AE         6.441510107E-01 kcal/mol

Coordinates in bohr
s                   x[bohr]                   y[bohr]                   z[bohr]                      q[e]
+        3.2084127032423497       -2.2024526980730812        0.0516955803038876        0.4844664243256026
-        2.6066635840483818       -1.2099488030299366       -0.0294847276036983       -0.8591906742807199
+        2.0820688209200702       -1.0891474812866808        0.0476838595834596        0.9988142167569625
-        2.7491984406981418       -1.8799784636632066        0.0663267939701254       -0.9989077555068347
-        1.0145553669171012        0.6187711326393164       -0.3194112053883030       -0.9501991572984190
+        0.4008848457831518        0.8671672651811798       -0.0641236647125341        0.7171111576652400
-        1.0823790868723950        0.7460499933930275        0.8195454378468952       -0.3298866363874070
+        1.8464060220606675       -0.2374748047803796       -0.0639366417641207        0.9922214324485987
