2
s                      x[A]                      y[A]                      z[A]                      q[e]
O       -2.1388987058572173        1.2378523396462511        0.3924507038296609       -0.9798184107889922
N       -2.1431829124435704        1.2441080314557493        0.3686144398913425        0.9999999958123134

        RMSE         7.588455600E-01 kcal/mol
         MAE         5.649895594E-01 kcal/mol
     max. AE         5.116855806E+00 kcal/mol

Coordinates in bohr
s                   x[bohr]                   y[bohr]                   z[bohr]                      q[e]
-       -4.0419327641663223        2.3392019056886175        0.7416243479812227       -0.9798184107889922
+       -4.0500287412794123        2.3510234499338392        0.6965803372836741        0.9999999958123134
