3
s                      x[A]                      y[A]                      z[A]                      q[e]
N        0.0127388500903451        0.3607752843811046        0.0385343631636531        0.5575181318621493
O        0.4201028464316111        0.2463957155745607        0.0607171762972572       -0.9999999999871706
N        0.9086707314048529       -0.2418302919260391        0.0000103545209408        0.9665864227497848

        RMSE         3.205186466E-01 kcal/mol
         MAE         2.258928900E-01 kcal/mol
     max. AE         2.477829402E+00 kcal/mol

Coordinates in bohr
s                   x[bohr]                   y[bohr]                   z[bohr]                      q[e]
+        0.0240729378240160        0.6817664803144509        0.0728193927982350        0.5575181318621493
-        0.7938793242810135        0.4656204209221237        0.1147388343129558       -0.9999999999871706
+        1.7171388205746234       -0.4569930205797294        0.0000195672087384        0.9665864227497848
