3
s                      x[A]                      y[A]                      z[A]                      q[e]
N       -2.8602104559711954       -0.4440571295641271       -0.0009282666733061        0.2069028829863189
N       -2.0851577343504553        1.0086788571330469       -0.0292451069807865        0.2420882412498825
O       -2.0579505386236274        0.1965516453970413       -0.0398764051385026       -0.4558727847810646

        RMSE         2.847404269E-01 kcal/mol
         MAE         1.815165404E-01 kcal/mol
     max. AE         2.375129020E+00 kcal/mol

Coordinates in bohr
s                   x[bohr]                   y[bohr]                   z[bohr]                      q[e]
+       -5.4050144229564152       -0.8391463589331427       -0.0017541697839384        0.2069028829863189
+       -3.9403770463025092        1.9061267885212632       -0.0552652427034014        0.2420882412498825
-       -3.8889628977370778        0.3714287793085119       -0.0753554845795692       -0.4558727847810646
