5
s                      x[A]                      y[A]                      z[A]                      q[e]
N       -2.1029341363053224        1.5593287001475875        0.0014414172694241        0.0674830594396155
O       -1.8215680978687512       -0.2928189921253438        0.3553409767299558       -0.3208585618799399
N       -1.9335067378186122       -0.3897750577575949        0.0032714944954701        0.5837233487087217
N       -3.3181690314300973       -0.6057278183791525       -0.0152638020815155        0.0603596403875642
O       -1.8337732417378108       -0.3170718232822388       -0.3125348081769690       -0.3975891472008247

        RMSE         9.770223234E-02 kcal/mol
         MAE         5.942438383E-02 kcal/mol
     max. AE         9.176069495E-01 kcal/mol

Coordinates in bohr
s                   x[bohr]                   y[bohr]                   z[bohr]                      q[e]
+       -3.9739695774932615        2.9467041828450919        0.0027238838717168        0.0674830594396155
-       -3.4422648238431011       -0.5533476994494924        0.6714971271722996       -0.3208585618799399
+       -3.6537981962045709       -0.7365681096963610        0.0061822286173813        0.5837233487087217
+       -6.2704307073785523       -1.1446596833076588       -0.0288444055672574        0.0603596403875642
-       -3.4653292030774345       -0.5991789081029943       -0.5906051921269693       -0.3975891472008247
