9
s                      x[A]                      y[A]                      z[A]                      q[e]
O       -2.1790402427713760        1.3945584008318173        0.2355891981076316       -0.9801571855608149
N       -2.1749843494793715        1.4198780753743003        0.2202164241110811        0.9986032758277252
O       -2.8781917199029952       -0.4101088738692514        0.2157336187615915       -0.7167076162937975
N       -2.6755343027821867       -0.4213213583502899        0.1780348836507439        0.2325310352297209
N       -3.0375669500905187       -0.4743527022924916        0.1724615099108504        0.4924974070640936
N       -1.9433444324652152        0.0345489299418930        0.1725350331058508        0.9952207006135894
O       -1.9036988140873274       -0.2003191766509629       -0.1688336277341145       -0.9999999287925543
N       -2.0022347998670469       -0.4330545249390928       -0.1829505109676059        0.3963452006982891
O       -1.7845437717945170        0.0317141210705607        0.5101228168347146       -0.4252145493311147

        RMSE         9.214510530E-02 kcal/mol
         MAE         5.338410517E-02 kcal/mol
     max. AE         9.361679683E-01 kcal/mol

Coordinates in bohr
s                   x[bohr]                   y[bohr]                   z[bohr]                      q[e]
-       -4.1177892751890379        2.6353334435285749        0.4451990625396514       -0.9801571855608149
+       -4.1101247476730673        2.6831806939995948        0.4161487298976111        0.9986032758277252
-       -5.4389940871770897       -0.7749934532328135        0.4076774555133386       -0.7167076162937975
+       -5.0560270715260938       -0.7961819780879225        0.3364371708776556        0.2325310352297209
+       -5.7401696234133084       -0.8963966942036408        0.3259050209144382        0.4924974070640936
+       -3.6723887447925332        0.0652880155178074        0.3260439596168576        0.9952207006135894
-       -3.5974693839839076       -0.3785483815475264       -0.3190493171849775       -0.9999999287925543
+       -3.7836754106095842       -0.8183544495251323       -0.3457263602413437        0.3963452006982891
-       -3.3722989875831511        0.0599310031329712        0.9639924141646985       -0.4252145493311147
