4
s                      x[A]                      y[A]                      z[A]                      q[e]
O        0.2752636860947348        2.0007485144480408       -0.1609392701939803       -0.8280779766697203
N        0.1605580749902969        2.0786204755175359       -0.0274393968234160        0.9999999945609568
N        0.4761791782796459        1.9281025173779003       -0.0252329184725839        0.4572494588958361
O        0.2659488620393833        2.0710001632691801        0.1291991302254962       -0.5465863599148264

        RMSE         9.191846570E-02 kcal/mol
         MAE         5.935728083E-02 kcal/mol
     max. AE         8.808212282E-01 kcal/mol

Coordinates in bohr
s                   x[bohr]                   y[bohr]                   z[bohr]                      q[e]
-        0.5201729790030430        3.7808667382234016       -0.3041311434976809       -0.8280779766697203
+        0.3034107889623812        3.9280234174970619       -0.0518529450440137        0.9999999945609568
+        0.8998482335940876        3.6435856996500244       -0.0476833052591892        0.4572494588958361
-        0.5025705126316022        3.9136231143571973        0.2441509717735483       -0.5465863599148264
