1
s                      x[A]                      y[A]                      z[A]                      q[e]
N       -2.2849829618444732        1.4294457946806574       -0.2368787054017262        0.0201815850233212

        RMSE         1.040344206E+00 kcal/mol
         MAE         7.707651510E-01 kcal/mol
     max. AE         4.290397549E+00 kcal/mol

Coordinates in bohr
s                   x[bohr]                   y[bohr]                   z[bohr]                      q[e]
+       -4.3179919992235085        2.7012610631338649       -0.4476358781622704        0.0201815850233212
