29
s                      x[A]                      y[A]                      z[A]                      q[e]
N        1.9733146674530095        1.0447642983142187       -1.1541051400807072        0.8823111770239920
N        2.0428914038426949        0.6261246348972597       -0.7675044612236650        0.2860751253686664
O        1.9853934257666903        0.9903172248134361       -1.1203924005512542       -0.9871196422254294
N        3.3423165007588858       -0.3742588719531272        0.0655943264882710        0.0626526003752504
N        2.0522578417570236       -0.2609620396943594        0.1491975159237543        0.3598761225517113
N        1.4375963103109075        0.2432947994005546       -0.3373362117570600        0.3672744525939629
O        1.7104737544083686       -0.0016825983110865       -0.0961499914123096       -0.9654669584984040
O        1.3033506193442053       -0.3056200583989639        0.3674111702770908       -0.9966170739143184
O        0.9640970710066341       -0.4879064308702458       -0.2021941330096177       -0.5563443895550283
N        0.8031895572281554       -0.4004472462927705        0.0686706487136133        0.9988470656092037
N        1.4197927371913088       -0.5156786626201212        0.4419424420475125        0.6563144223392988
N        0.9535106280236544       -1.4486626173695976        1.0100730041765225        0.4896525028224045
N        0.5791145849715142       -1.3398582214380832        0.8750051687796180        0.1166573641938881
O        0.8873445892640317       -1.3408837580695474        0.9086834498922387       -0.6481589849988869
N       -1.5464025752141066       -1.2920214476517373       -0.2644883853079344        0.4170202439525413
O       -1.3766577404111475       -0.7915929360138789       -0.1756117592446704       -0.5085331585064329
N       -1.0021768452628661       -0.6576410950515392       -0.1007769750580470        0.7665814662995104
O       -1.2867526412508472       -1.0538082572029390       -0.1968701861404707       -0.9988595896781017
N       -0.2286958150262737        0.4698582012558186        0.0099632340180018        0.9728525692848051
O       -0.6736740092156236        0.2450197496539041        0.2361733049900991       -0.4838646817123318
O       -0.4333573475207516        0.4452973566898911       -0.1280021703389640       -0.9612693294381703
N       -0.9999630767486963       -0.1015784399197211       -0.0426703134009254        0.9202970563180953
N       -2.3848416530301955        1.5487561389759941       -0.1806613301986806        0.0789807611047886
N       -0.6152965094463339        0.9495185704832552        0.2164018223919401        0.8043999496569233
O       -0.8142099170140956        0.8761084762159145        0.3397926644565314       -0.9975291558197742
N       -1.0541057743179960        0.9103422428438794        0.0552035296305254        0.5421722259019336
O       -0.7566298131304305        0.9244983969054240       -0.1260915609226353       -0.7145531159436899
O       -0.1766177853633095        2.3061445205169613        0.0823100463604125       -0.7310643650890370
N       -0.1813301731789851        2.3026768672464697        0.1221069472545498        0.8274153399826294

        RMSE         4.670740786E-01 kcal/mol
         MAE         2.782018901E-01 kcal/mol
     max. AE         4.359016104E+00 kcal/mol

Coordinates in bohr
s                   x[bohr]                   y[bohr]                   z[bohr]                      q[e]
+        3.7290242808350782        1.9743183894699952       -2.1809426347356786        0.8823111770239920
+        3.8605052573147591        1.1832040803580959       -1.4503732317797944        0.2860751253686664
-        3.7518498259835318        1.8714283322208436       -2.1172347900861168       -0.9871196422254294
+        6.3160628110328556       -0.7072467680142005        0.1239553124466961        0.0626526003752504
+        3.8782052597439449       -0.4931467841631937        0.2819424436945288        0.3598761225517113
+        2.7166633054563007        0.4597605386152496       -0.6374730524202905        0.3672744525939629
-        3.2323269406154309       -0.0031796499871113       -0.1816971507343872       -0.9654669584984040
-        2.4629757160063859       -0.5775382088204692        0.6943064872576532       -0.9966170739143184
-        1.8218794225586072       -0.9220095291943873       -0.3820915355625697       -0.5563443895550283
+        1.5178082899889507       -0.7567356231870938        0.1297687189262520        0.9988470656092037
+        2.6830194282056965       -0.9744914410943961        0.8351501786858166        0.6563144223392988
+        1.8018739446780008       -2.7375755950174456        1.9087613446120484        0.4896525028224045
+        1.0943679608543377       -2.5319650854610058        1.6535201273534805        0.1166573641938881
-        1.6768382526158865       -2.5339030688260977        1.7171628550325129       -0.6481589849988869
+       -2.9222773468573613       -2.4415666842793318       -0.4998106115965602        0.4170202439525413
-       -2.6015060978686866       -1.4958938519132938       -0.3318581293822639       -0.5085331585064329
+       -1.8938397668221454       -1.2427615584935885       -0.1904408826118034        0.7665814662995104
-       -2.4316100831735903       -1.9914089948595766       -0.3720307340733932       -0.9988595896781017
+       -0.4321724564380204        0.8879033181737425        0.0188277836178683        0.9728525692848051
-       -1.2730593752566817        0.4630202221741193        0.4463028645755099       -0.4838646817123318
-       -0.8189267012690714        0.8414900485342004       -0.2418890454048434       -0.9612693294381703
+       -1.8896563506252029       -0.1919554316995453       -0.0806352060152021        0.9202970563180953
+       -4.5066975768111934        2.9267249377861311       -0.3414004355364100        0.0789807611047886
+       -1.1627418888037464        1.7943300492495775        0.4089401773707340        0.8043999496569233
-       -1.5386337517883868        1.6556050762402619        0.6421150752624331       -0.9975291558197742
+       -1.9919712207246703        1.7202975194099537        0.1043195521602891        0.5421722259019336
-       -1.4298231251728490        1.7470487735760603       -0.2382785168752612       -0.7145531159436899
-       -0.3337592432215493        4.3579815495023180        0.1555434449949165       -0.7310643650890370
+       -0.3426643655901206        4.3514286345230406        0.2307486883268237        0.8274153399826294
