10
s                      x[A]                      y[A]                      z[A]                      q[e]
N        2.6790556746916896       -0.0811235299999177       -0.0180692335830911        0.9999944059793555
O        2.6253188955560671       -0.1198347583972877       -0.0208925661250256       -0.9680415679993666
N        1.4522558087376867       -0.2120208916060885       -0.2045045672525991        0.6890294395941601
O        1.3998137084129179       -0.3653994320156366       -0.2623700591818096       -0.9834799649540700
N        1.2675374705843385       -0.8234104649664780        0.1141699074572926        0.5553926788594236
O        1.3159081113692179       -0.6249959452034219        0.3311002812930019       -0.5387882168632330
O        1.8159214926894187       -1.5122262279041851       -0.1774704477168922       -0.2039803301553949
N        1.7585938202816462       -2.0358740588237541       -0.0100160384993780        0.1403578030914759
O        1.8592986849472033       -1.4193521673192020        0.0549059807649018       -0.8322694449398875
N        1.8952260487247523       -1.3629024359781052        0.0078704495267679        0.9995532402569252

        RMSE         5.249973148E-02 kcal/mol
         MAE         2.906100472E-02 kcal/mol
     max. AE         1.041754809E+00 kcal/mol

Coordinates in bohr
s                   x[bohr]                   y[bohr]                   z[bohr]                      q[e]
+        5.0626815000209344       -0.1533012540302063       -0.0341459027689672        0.9999944059793555
-        4.9611337045903916       -0.2264548736812815       -0.0394812280343161       -0.9680415679993666
+        2.7443657426194932       -0.4006614180108877       -0.3864576235126839        0.6890294395941601
-        2.6452645355618971       -0.6905048529074000       -0.4958075553737821       -0.9834799649540700
+        2.3952986731599579       -1.5560202676225312        0.2157498568631483        0.5553926788594236
-        2.4867059367562803       -1.1810711659561157        0.6256888517058214       -0.5387882168632330
-        3.4315942865155709       -2.8576934104730825       -0.3353705415473088       -0.2039803301553949
+        3.3232606862549154       -3.8472443971011150       -0.0189275696258660        0.1403578030914759
-        3.5135652999741138       -2.6821868718082866        0.1037572662953200       -0.8322694449398875
+        3.5814581779233752       -2.5755123397179407        0.0148729940898306        0.9995532402569252
