11
s                      x[A]                      y[A]                      z[A]                      q[e]
N        2.8038381811047222       -0.1005519939235077       -0.0373092824890481        0.5205057468072347
N        2.6460858256908564       -0.4091915676801026       -0.0788345089592695        0.4201974952641125
O        2.7117109899375298       -0.2532904703113584       -0.0592451519566743       -0.8484899054270967
N        1.4869957123500464       -0.1751246836761690       -0.1470821651941904        0.5021899966981574
O        1.4236834316722631       -0.3371730346925735       -0.2788201673974796       -0.6636048597323072
N        1.2952770018503355       -0.9083811326059740        0.0964703335251067        0.1992487747429630
O        1.3682093654472238       -0.4759524300686963        0.3902745305087726       -0.3289546812412907
O        1.6243822259438601       -1.6493421922490086       -0.1461024234921239       -0.1879834816986088
N        1.7646940683677663       -1.9534558570706271       -0.0339181989181575        0.1565814908572247
O        1.5169340152471120       -1.6092587409254593        0.2484887103147682       -0.5947503179227686
N        1.5102194118855390       -1.6014928642946056        0.1861863810087748        0.6828277845217678

        RMSE         3.547271173E-02 kcal/mol
         MAE         2.004780326E-02 kcal/mol
     max. AE         4.700446676E-01 kcal/mol

Coordinates in bohr
s                   x[bohr]                   y[bohr]                   z[bohr]                      q[e]
+        5.2984862623897513       -0.1900157298841293       -0.0705043258416404        0.5205057468072347
+        5.0003775150116603       -0.7732599957621349       -0.1489756311679709        0.4201974952641125
-        5.1243911023760598       -0.4786496190768744       -0.1119571114592463       -0.8484899054270967
+        2.8100146460716564       -0.3309376899553947       -0.2779450101563657        0.5021899966981574
-        2.6903717752125305       -0.6371646924584549       -0.5268937546355422       -0.6636048597323072
+        2.4477187901012667       -1.7165915581584807        0.1823025095940243        0.1992487747429630
-        2.5855409829816960       -0.8994197415759553        0.7375119764032158       -0.3289546812412907
-        3.0696375300954530       -3.1168050305128392       -0.2760935666657701       -0.1879834816986088
+        3.3347884844350308       -3.6914965680349772       -0.0640961066241177        0.1565814908572247
-        2.8665898392081108       -3.0410582853482109        0.4695756077631396       -0.5947503179227686
+        2.8539010778136595       -3.0263829053918045        0.3518412683967269        0.6828277845217678
