12
s                      x[A]                      y[A]                      z[A]                      q[e]
O        2.4635996063804604       -0.1059601255490179       -0.0865630762522478       -0.9975595865288731
N        2.4767845108939568       -0.3805960490554010        0.0081734154467015        0.8818962930942310
O        2.4593509412164236       -0.4436622155765846        0.0674675156887957       -0.6214129575880222
N        2.6402673257038147        0.0122002321626343       -0.0601131895431493        0.5768301063202796
N        1.7887810814922338       -0.1525070761318631       -0.2237059178100468        0.5914635235280176
O        1.5263798415199479       -0.3589970148019289       -0.2958816839968146       -0.7884937598258513
N        1.5830261880921179       -0.7084672505824029        0.1295649726260082        0.5948582323515202
O        1.4229389776769970       -0.5444997844763515        0.4760294591005267       -0.3999224673696949
O        1.6686862568839957       -1.4968786826648788       -0.2187377048010672       -0.2174144256308684
N        1.7639550990398682       -1.9777683737390062       -0.0343494779900531        0.1276565095931793
O        1.6538435880416651       -1.4282042371422601        0.2280811549315552       -0.8799674851509249
N        1.6411532265231015       -1.4170852474645408        0.1560156653502898        0.9898340600763951

        RMSE         4.523262370E-02 kcal/mol
         MAE         2.605979498E-02 kcal/mol
     max. AE         6.242241166E-01 kcal/mol

Coordinates in bohr
s                   x[bohr]                   y[bohr]                   z[bohr]                      q[e]
-        4.6555285388447780       -0.2002356175067707       -0.1635805066938708       -0.9975595865288731
+        4.6804443973655987       -0.7192222971460204        0.0154455167038523        0.8818962930942310
-        4.6474997252859751       -0.8384000796535749        0.1274951270168532       -0.6214129575880222
+        4.9893821435751713        0.0230550974543810       -0.1135974647642876        0.5768301063202796
+        3.3803063424205826       -0.2881966060835677       -0.4227429173051670        0.5914635235280176
-        2.8844398638924247       -0.6784060378325756       -0.5591353482932379       -0.7884937598258513
+        2.9914859449215929       -1.3388090724568444        0.2448423137155960        0.5948582323515202
-        2.6889649610484745       -1.0289554680311181        0.8995653053498239       -0.3999224673696949
-        3.1533600148261196       -2.8286907532727192       -0.4133543553852588       -0.2174144256308684
+        3.3333920347901898       -3.7374405659588419       -0.0649111059536420        0.1276565095931793
-        3.1253114357432481       -2.6989148594172963        0.4310109171987545       -0.8799674851509249
+        3.1013301280401140       -2.6779030141346141        0.2948268787931282        0.9898340600763951
