3
s                      x[A]                      y[A]                      z[A]                      q[e]
N        2.4567125037215343       -0.2135048583797593       -0.0045892919973052        0.3588623882846546
O        1.7782324868781156       -0.6734126108602895       -0.0010622689418219       -0.8435020359872956
N        1.7549555799146399       -1.5250216251570199        0.0054873848747109        0.3424076905720292

        RMSE         2.904947167E-01 kcal/mol
         MAE         1.905845309E-01 kcal/mol
     max. AE         2.529445232E+00 kcal/mol

Coordinates in bohr
s                   x[bohr]                   y[bohr]                   z[bohr]                      q[e]
+        4.6425138010214955       -0.4034657087924048       -0.0086725049846622        0.3588623882846546
-        3.3603723875914198       -1.2725654039554550       -0.0020073973716234       -0.8435020359872956
+        3.3163854083826885       -2.8818732069473754        0.0103696545581832        0.3424076905720292
