5
s                      x[A]                      y[A]                      z[A]                      q[e]
N        2.1470663962782739       -0.3024080558861831        0.0171931708926993        0.9999999692782336
O        1.8791320125774806       -0.3910125837873400       -0.1241771078238698       -0.9999999588401826
N        1.9707987043632762       -0.2281378678136450        0.1051502270988250        0.7149763528731886
O        1.9439264710738227       -0.3116014623092199        0.2147771824547470       -0.9999923768174185
N        1.7242404669731348       -1.8827504761070502       -0.0026562351071727        0.1427840563755670

        RMSE         2.634016484E-01 kcal/mol
         MAE         1.605973865E-01 kcal/mol
     max. AE         2.065276185E+00 kcal/mol

Coordinates in bohr
s                   x[bohr]                   y[bohr]                   z[bohr]                      q[e]
+        4.0573674621396441       -0.5714684037570311        0.0324903842153950        0.9999999692782336
-        3.5510448573518132       -0.7389066949657044       -0.2346607248385605       -0.9999999588401826
+        3.7242697996537215       -0.4311180890136895        0.1987051312464733        0.7149763528731886
-        3.6734886383572438       -0.5888414240565957        0.4058700528369582       -0.9999923768174185
+        3.2583422570107383       -3.5578827624176572       -0.0050195568773825        0.1427840563755670
