6
s                      x[A]                      y[A]                      z[A]                      q[e]
O        1.4618683764813913       -0.8417319222181721       -0.3870350517182345       -0.7580780229341524
O        1.4462827838720025       -0.5785751713979788        0.4964495694596822       -0.2090524234385087
N        1.5039868655226545       -1.0897780761215119       -0.3074810104639135        0.7472849668620891
N        1.7151714261678279       -1.9295562275645337       -0.2505245696709837        0.6080055446437223
O        1.6929513005619954       -1.8635296523012936       -0.3033604259012085       -0.6376230412396624
N        2.8209172785038206        0.0921616010134410        0.0022444985415624        0.1072310189759003

        RMSE         1.185095506E-01 kcal/mol
         MAE         7.129693018E-02 kcal/mol
     max. AE         1.304545628E+00 kcal/mol

Coordinates in bohr
s                   x[bohr]                   y[bohr]                   z[bohr]                      q[e]
-        2.7625308630175054       -1.5906428040475162       -0.7313902486998693       -0.7580780229341524
-        2.7330783614828009       -1.0933486169320012        0.9381537213802522       -0.2090524234385087
+        2.8421232721235894       -2.0593821013979907       -0.5810548985558293        0.7472849668620891
+        3.2412042536681067       -3.6463328137685496       -0.4734228243763378        0.6080055446437223
-        3.1992143017998105       -3.5215606695190975       -0.5732681222555274       -0.6376230412396624
+        5.3307610789440663        0.1741601851991201        0.0042414875325425        0.1072310189759003
