8
s                      x[A]                      y[A]                      z[A]                      q[e]
N        2.8345582465752774       -0.0309282093905045       -0.1273601924648312        0.3017008411679588
N        2.4474718441392760       -0.3444950702020272       -0.2382557841196884        0.6043006111807082
O        2.5780713390020278       -0.2174967482874244       -0.2123428445029600       -0.8115965451664392
N        1.8467624221024490       -0.2884884757974341       -0.1416827745651688        0.6437399440969515
O        1.6342752482049752       -0.4832397349881469       -0.2610709921759683       -0.9055367838249186
N        1.4168076943555274       -0.8146023437111387        0.0923604361128365        0.5464802145981509
O        1.4721811880353630       -0.5991915816147474        0.3102439235158395       -0.5922202013523424
N        1.7856583531936430       -2.1380599822285569       -0.0136221730964830        0.0708999621693191

        RMSE         9.144700179E-02 kcal/mol
         MAE         5.221473394E-02 kcal/mol
     max. AE         1.401105231E+00 kcal/mol

Coordinates in bohr
s                   x[bohr]                   y[bohr]                   z[bohr]                      q[e]
+        5.3565387726852345       -0.0584458452988665       -0.2406758830441288        0.3017008411679588
+        4.6250514851924391       -0.6510013342521994       -0.4502381797924154        0.6043006111807082
-        4.8718487626061773       -0.4110092874408711       -0.4012698208112726       -0.8115965451664392
+        3.4898751965607753       -0.5451642096079197       -0.2677416406231513        0.6437399440969515
-        3.0883326327220182       -0.9131907520664184       -0.4933526745141236       -0.9055367838249186
+        2.6773785147733098       -1.5393753307701161        0.1745359290811059        0.5464802145981509
-        2.7820192524379688       -1.1323079859317846        0.5862760475324222       -0.5922202013523424
+        3.3744052411720289       -4.0403478062132034       -0.0257421763859327        0.0708999621693191
