9
s                      x[A]                      y[A]                      z[A]                      q[e]
N        2.6238120755737553       -0.0071782864321106       -0.0393813108982310        0.4771964982406026
O        2.3584705133866510       -0.0748924010878163       -0.0632314067638204       -0.6749076176019690
N        1.7985004706367478       -0.1213453312015736       -0.1022115548916298        0.5701633893184542
O        1.4143807672435720       -0.4110407109136977       -0.2782589671186214       -0.5669546682918418
N        1.1656566877653660       -0.7240617284237369        0.0903080096754443        0.4651123767103613
O        1.3007185575925524       -0.5491132233326550        0.3041837032344466       -0.5334168783938035
N        1.7880186145242871       -1.8524344771566355       -0.0667512781331391        0.3934921357443610
O        1.8665264119745926       -1.5678221452755892       -0.1069583673012003       -0.9372288069251085
N        1.9464883882530057       -1.4137799949096634       -0.1142835080496652        0.6643116140683318

        RMSE         5.763083991E-02 kcal/mol
         MAE         3.278549220E-02 kcal/mol
     max. AE         1.288103210E+00 kcal/mol

Coordinates in bohr
s                   x[bohr]                   y[bohr]                   z[bohr]                      q[e]
+        4.9582862275034545       -0.0135649954067788       -0.0744198920591643        0.4771964982406026
-        4.4568633452686912       -0.1415261269339126       -0.1194900413110422       -0.6749076176019690
+        3.3986733260104618       -0.2293094425739466       -0.1931518456023796        0.5701633893184542
-        2.6727922872052656       -0.7767543700403732       -0.5258332398069695       -0.5669546682918418
+        2.2027718961848506       -1.3682783646464867        0.1706574052217854        0.4651123767103613
-        2.4580018401504691       -1.0376736039660772        0.5748238909406446       -0.5334168783938035
+        3.3788654886714551       -3.5005938271817065       -0.1261416341958949        0.3934921357443610
-        3.5272237245654487       -2.9627544679986193       -0.2021220210253926       -0.9372288069251085
+        3.6783299601820052       -2.6716569920304263       -0.2159645308704222        0.6643116140683318
