2
s                      x[A]                      y[A]                      z[A]                      q[e]
N        2.6807278367673817       -0.0805874699225966       -0.0087357248497809        0.9917510991076346
O        2.6089702123491696       -0.1144717716253329       -0.0126403647545189       -0.9999998631315864

        RMSE         2.269288667E-01 kcal/mol
         MAE         1.608339072E-01 kcal/mol
     max. AE         1.241967663E+00 kcal/mol

Coordinates in bohr
s                   x[bohr]                   y[bohr]                   z[bohr]                      q[e]
+        5.0658414283813693       -0.1522882472972777       -0.0165081274734421        0.9917510991076346
-        4.9302391708174831       -0.2163202974678336       -0.0238868275119307       -0.9999998631315864
