11
s                      x[A]                      y[A]                      z[A]                      q[e]
N        0.0272890903572224        0.3450717723613749       -0.0699027588779085        0.8712580778889993
O        0.2182255927340997       -0.6952677680019844       -0.0371651326855955       -0.9374505199318317
O       -0.3722026050240441        1.3081764038865706        0.0080526822510512       -0.7740110203198620
O       -1.6636181383345232       -0.7950291789641579        0.1874495110545629       -0.5391508189625425
N       -1.5966857831895211       -0.5070768409602074        0.0428950619715781        0.9999954699158617
N        0.3889129546877601       -1.6930340053236788        0.0032765746744176        0.3963766893655390
O        1.7869705819515413        0.3067471624137778       -0.3098368775341063       -0.3648810033877249
N        1.8787714129750404        0.1325037201580422       -0.1967198338733387        0.4996934459357586
N       -2.3747008475111957       -0.2919619960216701       -1.0833740953576527        0.7474613744642449
O       -2.2858391207814805       -0.3416574204910480       -0.9428599084754482       -0.9552929940320272
N       -1.7356236823184510       -1.4820351567880243       -0.3836278558345358        0.0560012990635853

        RMSE         1.076341966E+00 kcal/mol
         MAE         7.133237144E-01 kcal/mol
     max. AE         1.044049582E+01 kcal/mol

Coordinates in bohr
s                   x[bohr]                   y[bohr]                   z[bohr]                      q[e]
+        0.0515689069880224        0.6520911433893266       -0.1320970696931629        0.8712580778889993
-        0.4123866038331483       -1.3138656653821021       -0.0702319221920765       -0.9374505199318317
-       -0.7033609866773971        2.4720951271319240        0.0152173640298220       -0.7740110203198620
-       -3.1437826587962636       -1.5023874099898564        0.3542282382441035       -0.5391508189625425
+       -3.0172988386403317       -0.9582363539771281        0.0810599192608237        0.9999954699158617
+        0.7349389710024568       -3.1993705911486634        0.0061918287642604        0.3963766893655390
-        3.3768849941384067        0.5796681267233714       -0.5855068421064783       -0.3648810033877249
+        3.5503634228622523        0.2503957417030054       -0.3717466094661719        0.4996934459357586
+       -4.4875342316887528       -0.5517282115229645       -2.0472803316415966        0.7474613744642449
-       -4.3196099051343158       -0.6456389534584641       -1.7817470016928312       -0.9552929940320272
+       -3.2798534164404947       -2.8006405546293180       -0.7249515816238917        0.0560012990635853
