3
s                      x[A]                      y[A]                      z[A]                      q[e]
N        0.0000425351905449        0.7665758196520003       -0.0683501454720482        0.6235123455191256
O        0.0000378253954197        0.7712535167510662       -0.2219452574188389       -0.9999999992511897
N        0.0000136196657252        0.8669479355306429       -0.4794619626194080        0.5929755958750663

        RMSE         1.959470087E-01 kcal/mol
         MAE         1.418785172E-01 kcal/mol
     max. AE         1.233073364E+00 kcal/mol

Coordinates in bohr
s                   x[bohr]                   y[bohr]                   z[bohr]                      q[e]
+        0.0000803798608240        1.4486183535406334       -0.1291630555773726        0.6235123455191256
-        0.0000714796379304        1.4574579199557165       -0.4194157513658427       -0.9999999992511897
+        0.0000257374381410        1.6382941631839847       -0.9060517969251800        0.5929755958750663
