10
s                      x[A]                      y[A]                      z[A]                      q[e]
O        1.8472068483220008        0.8777770634083377        0.9867163826025698       -0.9804632275103622
N        1.8927858323765825        0.8986201648049910        1.0108547373830754        0.7761019650951093
N        1.6957381566473180        1.0631954273633559        0.9725437095011579        0.2033349310837322
O        2.6734662940346974       -0.7559576859919095        0.1152171424822085       -0.9872920517237906
N        2.6532804343092322       -0.7683296088987922        0.0970046261406852        0.9628184239401647
N        3.2518274801145268       -0.6448212691623977        0.1593448431318380        0.0879859258880715
O        1.4663102118167655       -0.2729852794677968        0.4057536234295989       -0.7654898270614529
N        1.7458049093542118       -0.2514093084406163        0.0790940421071276        0.2604093633472485
N        1.5048430327625593       -0.0536011009946869        0.3287227236538051        0.9999998545462008
O        1.5746673884662470       -0.0167667313967804       -0.0981881377082499       -0.5535739138905320

        RMSE         5.877809130E-02 kcal/mol
         MAE         3.313616604E-02 kcal/mol
     max. AE         8.135347063E-01 kcal/mol

Coordinates in bohr
s                   x[bohr]                   y[bohr]                   z[bohr]                      q[e]
-        3.4907150403987006        1.6587582490503885        1.8646237266213181       -0.9804632275103622
+        3.5768468373384694        1.6981460022952106        1.9102386062756094        0.7761019650951093
+        3.2044806965521357        2.0091481755558345        1.8378412559940067        0.2033349310837322
-        5.0521191013682873       -1.4285529889595565        0.2177288442492263       -0.9872920517237906
+        5.0139733548802488       -1.4519325348988430        0.1833121763083221        0.9628184239401647
+        6.1450633446541172       -1.2185355985870572        0.3011181130232137        0.0879859258880715
-        2.7709247152957435       -0.5158674144757021        0.7667632226940905       -0.7654898270614529
+        3.2990931471591898       -0.4750947383435178        0.1494660777379006        0.2604093633472485
+        2.8437411937245987       -0.1012914009029635        0.6211959189202495        0.9999998545462008
-        2.9756901028911176       -0.0316845303590299       -0.1855486890373308       -0.5535739138905320
