3
s                      x[A]                      y[A]                      z[A]                      q[e]
N        1.7436372214751990        0.8519982185086425        0.7561461126171982        0.2077686633654407
N        2.7884483456836380       -0.4824783136623284        0.0929966959133842        0.1989579679818300
O        1.8504923519309415       -0.0464925966674155        0.1876898728494242       -0.4028951876328813

        RMSE         2.691934111E-01 kcal/mol
         MAE         1.676358739E-01 kcal/mol
     max. AE         2.427510083E+00 kcal/mol

Coordinates in bohr
s                   x[bohr]                   y[bohr]                   z[bohr]                      q[e]
+        3.2949968107423806        1.6100432923593091        1.4289090636760966        0.2077686633654407
+        5.2694036883280315       -0.9117518742945385        0.1757382858487793        0.1989579679818300
-        3.4969237424038018       -0.0878582745627887        0.3546824562074149       -0.4028951876328813
