2
s                      x[A]                      y[A]                      z[A]                      q[e]
O        0.9720693304813469       -1.1681140393548584       -1.0766261163981354       -0.9419451245052302
N        0.9613001115698528       -1.1753546622469304       -1.0401693636501219        0.9999999972090112

        RMSE         1.069020952E+00 kcal/mol
         MAE         7.613849511E-01 kcal/mol
     max. AE         6.045487648E+00 kcal/mol

Coordinates in bohr
s                   x[bohr]                   y[bohr]                   z[bohr]                      q[e]
-        1.8369448095669008       -2.2074156176829494       -2.0345284995077573       -0.9419451245052302
+        1.8165939352390759       -2.2210984119266861       -1.9656352213904797        0.9999999972090112
