1
s                      x[A]                      y[A]                      z[A]                      q[e]
O       -2.3218255777905252       -0.6076193184990143        0.3022988591203725       -0.0557654861456150

        RMSE         2.863805664E+00 kcal/mol
         MAE         2.322922094E+00 kcal/mol
     max. AE         1.049081678E+01 kcal/mol

Coordinates in bohr
s                   x[bohr]                   y[bohr]                   z[bohr]                      q[e]
-       -4.3876144531069725       -1.1482341005004684        0.5712620517758633       -0.0557654861456150
