1
s                      x[A]                      y[A]                      z[A]                      q[e]
N        0.8155910882242395       -1.2665287279717261       -0.5467633678404655        0.0580548727037810

        RMSE         1.298518964E+00 kcal/mol
         MAE         9.171448009E-01 kcal/mol
     max. AE         5.894941674E+00 kcal/mol

Coordinates in bohr
s                   x[bohr]                   y[bohr]                   z[bohr]                      q[e]
+        1.5412437871079259       -2.3933924258910415       -1.0332330206514362        0.0580548727037810
