1
s                      x[A]                      y[A]                      z[A]                      q[e]
O       -0.7009147122980511        1.7786382989502787       -0.1510098397368995       -0.2218443805384524

        RMSE         2.857980933E+00 kcal/mol
         MAE         2.384296674E+00 kcal/mol
     max. AE         9.641262522E+00 kcal/mol

Coordinates in bohr
s                   x[bohr]                   y[bohr]                   z[bohr]                      q[e]
-       -1.3245368435473845        3.3611392612662123       -0.2853672393520187       -0.2218443805384524
