2
s                      x[A]                      y[A]                      z[A]                      q[e]
O       -0.3286728445815678       -0.0000070568039160        0.5026819841804151       -0.2164974813976611
O        0.3286603562168776       -0.0000084806243385        0.5026926285483294       -0.2164872779714780

        RMSE         1.733128659E+00 kcal/mol
         MAE         1.264042602E+00 kcal/mol
     max. AE         9.161454507E+00 kcal/mol

Coordinates in bohr
s                   x[bohr]                   y[bohr]                   z[bohr]                      q[e]
-       -0.6211016611343291       -0.0000133354267222        0.9499312783027092       -0.2164974813976611
-        0.6210780615453098       -0.0000160260573727        0.9499513932428457       -0.2164872779714780
