5
s                      x[A]                      y[A]                      z[A]                      q[e]
N       -2.4444174226193787       -0.2564746565992033        1.0580445170592112        0.5355772293535254
N       -2.1925985960126475       -0.5369565228413440        0.7180925481314648        0.4572907144963927
O       -2.3258900860133807       -0.3496336278407191        0.8718934750419659       -0.9999973898344162
O        2.0298375215331044        0.2499301939257288       -0.0183134343217972       -0.7900465043556202
N        2.0842003966246763        0.0138979154094434       -0.0159104309410280        0.9999999840453564

        RMSE         2.368160971E-01 kcal/mol
         MAE         1.722470280E-01 kcal/mol
     max. AE         1.579440612E+00 kcal/mol

Coordinates in bohr
s                   x[bohr]                   y[bohr]                   z[bohr]                      q[e]
+       -4.6192794650481286       -0.4846668590933393        1.9994143657842023        0.5355772293535254
+       -4.1434108495272541       -1.0147007694482808        1.3569982487006120        0.4572907144963927
-       -4.3952952604828406       -0.6607118008692063        1.6476398784030157       -0.9999973898344162
-        3.8358369948756743        0.4722996170021912       -0.0346073752847561       -0.7900465043556202
+        3.9385679401912186        0.0262632538386282       -0.0300663570165531        0.9999999840453564
