4
s                      x[A]                      y[A]                      z[A]                      q[e]
N        1.7726494411789602        0.4554409850985780       -0.6849916984143540        0.2003683622432619
N        2.3021801930117363        0.3239433944122164       -0.5708119125346688        0.6199200616910485
N        2.2581128370169998        0.5397295639578229       -1.0219039316664733        0.2040626242664252
O        2.2288718081016281        0.3138020733880001       -0.6816509323785581       -0.9999999608894606

        RMSE         1.067553389E-01 kcal/mol
         MAE         6.320824848E-02 kcal/mol
     max. AE         1.028106485E+00 kcal/mol

Coordinates in bohr
s                   x[bohr]                   y[bohr]                   z[bohr]                      q[e]
+        3.3498219602741006        0.8606587281450323       -1.2944467082153344        0.2003683622432619
+        4.3504900562458237        0.6121642955902546       -1.0786781838393122        0.6199200616910485
+        4.2672148223427193        1.0199410576930596       -1.9311185573782059        0.2040626242664252
-        4.2119572860660739        0.5929999763041386       -1.2881335753584486       -0.9999999608894606
