2
s                      x[A]                      y[A]                      z[A]                      q[e]
N        3.0003879193432721       -1.0984219637912664        0.0833063358169556        0.9142264868981955
O        2.9660867654425185       -1.0467443858234167        0.0856010599415635       -0.9999999882982393

        RMSE         4.617633320E-01 kcal/mol
         MAE         3.322523396E-01 kcal/mol
     max. AE         2.153777106E+00 kcal/mol

Coordinates in bohr
s                   x[bohr]                   y[bohr]                   z[bohr]                      q[e]
+        5.6699114376910362       -2.0757166817530486        0.1574261592094642        0.9142264868981955
-        5.6050916510314321       -1.9780602125668192        0.1617625593384541       -0.9999999882982393
