4
s                      x[A]                      y[A]                      z[A]                      q[e]
O        2.5044296726361717       -0.7323084897673618       -0.3180028207441676       -0.1489688658917165
N        2.4477174500100243       -0.5747849989046684        0.0191030135792649        0.6275693622900818
N        2.7463679703802599       -0.9306171303700987        0.0370421943404346        0.4356259914471613
O        2.5883470773135651       -0.7035028078850371        0.0846322056140574       -0.9999999892455704

        RMSE         1.046597602E-01 kcal/mol
         MAE         6.551648162E-02 kcal/mol
     max. AE         1.165240569E+00 kcal/mol

Coordinates in bohr
s                   x[bohr]                   y[bohr]                   z[bohr]                      q[e]
-        4.7326861817523698       -1.3838624850079504       -0.6009382383295361       -0.1489688658917165
+        4.6255156130229587       -1.0861862289514010        0.0360994638357125        0.6275693622900818
+        5.1898833037481680       -1.7586115040589692        0.0699996023894053        0.4356259914471613
-        4.8912670937518570       -1.3294276353932939        0.1599316900040030       -0.9999999892455704
