32
s                      x[A]                      y[A]                      z[A]                      q[e]
N        1.5771724254859867        0.8886755207762966       -0.7118076314019490        0.6426183153176840
N        1.9132042342600231        1.1555040324322206       -1.0094383858984637        0.2043048421429682
O        1.6789624658359317        0.8795244866373719       -0.7168376866365009       -0.9837355025675073
N        3.3473717326186310       -0.3515577094877949        0.0437871195777851        0.0620935749807848
O        1.6517707177896856        0.1482886822647178       -0.0548890369661453       -0.9393984084062221
N        1.9795474331148533       -0.3953988297811644       -0.0060281893219445        0.5749269878224480
N        1.6803370285455077        0.3496098487772130       -0.3054078102174078        0.9362368963644138
O        1.9008392299835812       -0.4322403201988014       -0.1799982760964598       -0.4942312239879861
O        1.3005448417317713       -0.3067092982634552        0.3688117720289986       -0.9935427619047935
O        0.9588380885290915       -0.4880459955598030       -0.2023484235820429       -0.5564175384513361
N        0.8061653434356721       -0.3999999539397961        0.0688073255840683        0.9981611507330413
N        1.4239011687481307       -0.5181648077944147        0.4412491640801858        0.6546657731371320
N        0.9499941238362031       -1.4498507078110856        1.0115779880305065        0.4910002635696810
N        0.5790208929578150       -1.3396851896339699        0.8786449182738381        0.1168216286023632
O        0.8875060194881811       -1.3449468747947519        0.9111544275392567       -0.6495259894853005
N       -1.5442601377389855       -1.2965456399667157       -0.2638961578668287        0.4166622662613492
O       -1.3726093294189243       -0.7932323029511045       -0.1747493270493430       -0.5079457642842914
N       -1.0027923075875087       -0.6531825130759679       -0.1005746699863225        0.7657393530540193
O       -1.2874160414385387       -1.0531285454564530       -0.1970418453684653       -0.9977210478648666
N       -0.2288433024026848        0.4693833968391657        0.0100436880926325        0.9723340695323383
O       -0.6722690447207598        0.2451655800253807        0.2352994504236480       -0.4859940167137816
O       -0.4350240823330407        0.4460867967536594       -0.1281672550444690       -0.9592382923135625
N       -1.0011936415765805       -0.1019802164247799       -0.0428644491737788        0.9189919497683965
O       -1.9651521975735700        1.5875410275876265       -0.4773432372533452       -0.0304338639171468
O       -2.1906913342871071        1.4917216921481502        0.0797613593039814       -0.2797106022294736
N       -2.2423968636277829        1.5091353633070592       -0.0214387215050374        0.3575261493414532
O       -0.8028215006834343        0.9973334796437388       -0.2466841570706976       -0.4688802087647482
N       -1.0280600035697924        1.0953004168615057        0.1108580154583098        0.8601864423547864
O       -0.9458538034233372        0.9346741572221586        0.3522291547296718       -0.7452089681713433
O       -0.2382671830460887        1.8999768918882223        0.2908733846105597       -0.9960874590257669
N       -0.2033066812310322        1.7274383593951586        0.2819834556512917        0.7479090665474767
N       -0.2100748051874319        2.2129108182101667        0.3495970531288459        0.3678929185577909

        RMSE         4.630669771E-01 kcal/mol
         MAE         2.724721124E-01 kcal/mol
     max. AE         4.298890915E+00 kcal/mol

Coordinates in bohr
s                   x[bohr]                   y[bohr]                   z[bohr]                      q[e]
+        2.9804239367925587        1.6793533486658088       -1.3451214773605191        0.6426183153176840
+        3.6154320248177045        2.1835861581590366       -1.9075620898723076        0.2043048421429682
-        3.1727792353532562        1.6620604003785262       -1.3546269041497476       -0.9837355025675073
+        6.3256158147484625       -0.6643477882251994        0.0827456638246864        0.0620935749807848
-        3.1213942786733986        0.2802249969853522       -0.1037252471561453       -0.9393984084062221
+        3.7408025009401209       -0.7471954986129191       -0.0113916268508844        0.5749269878224480
+        3.1753767824166221        0.6606668649516598       -0.5771371178867016        0.9362368963644138
-        3.5920655531951144       -0.8168158255559320       -0.3401474448768513       -0.4942312239879861
-        2.4576735647499444       -0.5795965738492886        0.6969532409795953       -0.9935427619047935
-        1.8119413859774700       -0.9222732682344349       -0.3823831024881934       -0.5564175384513361
+        1.5234317109290720       -0.7558903631419607        0.1300270007790967        0.9981611507330413
+        2.6907832386532782       -0.9791895745819393        0.8338400731987550        0.6546657731371320
+        1.7952287148446922       -2.7398207605641325        1.9116053519193144        0.4910002635696810
+        1.0941909086083037       -2.5316381027402377        1.6603982570628302        0.1168216286023632
-        1.6771433115279002       -2.5415812466525014        1.7218323260475050       -0.6495259894853005
+       -2.9182287267884650       -2.4501161686935418       -0.4986914639288896        0.4166622662613492
-       -2.5938557098500916       -1.4989918064437808       -0.3302283687313178       -0.5079457642842914
+       -1.8950028220562576       -1.2343360596518560       -0.1900585814324529        0.7657393530540193
-       -2.4328637278399046       -1.9901245258144613       -0.3723551230012103       -0.9977210478648666
+       -0.4324511671863996        0.8870060678631108        0.0189798197845973        0.9723340695323383
-       -1.2704043771453968        0.4632958016369838        0.4446515187714367       -0.4859940167137816
-       -0.8220763735880642        0.8429818740471864       -0.2422010102857497       -0.9592382923135625
+       -1.8919817811295252       -0.1927146792577502       -0.0810020694570491        0.9189919497683965
-       -3.7135994482556387        3.0000177550685043       -0.9020479862482608       -0.0304338639171468
-       -4.1398066472164148        2.8189454535645191        0.1507271244787625       -0.2797106022294736
+       -4.2375159368421160        2.8518525228936409       -0.0405133121244838        0.3575261493414532
-       -1.5171127639207453        1.8846871322765362       -0.4661654963530396       -0.4688802087647482
+       -1.9427518472841048        2.0698178129680374        0.2094912880279757        0.8601864423547864
-       -1.7874046431927333        1.7662781736929907        0.6656166358405886       -0.7452089681713433
-       -0.4502597206414363        3.5904359703673370        0.5496710340989177       -0.9960874590257669
+       -0.3841939470024082        3.2643853978670401        0.5328715030911249        0.7479090665474767
+       -0.3969838476631538        4.1817953864800108        0.6606426846806485        0.3678929185577909
