2
s                      x[A]                      y[A]                      z[A]                      q[e]
O        2.1482161901224002        0.1226062719534857        0.9476680167332119       -0.1789331425896432
N        1.9398035041922381        0.3914908375950343        0.9072548148626727        0.2221549901996752

        RMSE         4.471743417E-01 kcal/mol
         MAE         3.295957055E-01 kcal/mol
     max. AE         2.586247387E+00 kcal/mol

Coordinates in bohr
s                   x[bohr]                   y[bohr]                   z[bohr]                      q[e]
-        4.0595402576057804        0.2316922752554894        1.7908330094815568       -0.1789331425896432
+        3.6656973601267162        0.7398104636807041        1.7144631260933976        0.2221549901996752
