3
s                      x[A]                      y[A]                      z[A]                      q[e]
O        2.2411612101075593        0.1791206012422259        0.8582706513194258       -0.4962885162724893
O        2.3051640116152843        0.5227097177886928        0.6206449172340009       -0.4604896345055676
N        2.2165304740718836        0.3919681927437869        0.7407740313078219        0.9999999983880887

        RMSE         1.553316853E-01 kcal/mol
         MAE         1.040525879E-01 kcal/mol
     max. AE         1.238515330E+00 kcal/mol

Coordinates in bohr
s                   x[bohr]                   y[bohr]                   z[bohr]                      q[e]
-        4.2351808901029360        0.3384888797751482        1.6218964725120251       -0.4962885162724893
-        4.3561286562145751        0.9877782097359813        1.1728489147297030       -0.4604896345055676
+        4.1886355447270640        0.7407125341764237        1.3998600400231063        0.9999999983880887
