1
s                      x[A]                      y[A]                      z[A]                      q[e]
N        2.0134985386915201        0.8913307851557268       -0.9318637542019702        0.0243512444347461

        RMSE         2.868301393E+00 kcal/mol
         MAE         2.384553610E+00 kcal/mol
     max. AE         9.262553271E+00 kcal/mol

Coordinates in bohr
s                   x[bohr]                   y[bohr]                   z[bohr]                      q[e]
+        3.8049607921365252        1.6843710711336155       -1.7609672816826751        0.0243512444347461
