10
s                      x[A]                      y[A]                      z[A]                      q[e]
O        1.4032979385439270       -1.6156171709236080       -0.0855463503290303       -0.9999992977995120
N        2.6216257267382566       -0.2086513965584854       -1.2122504844426920        0.0205458340818607
N        1.3819854592148808       -1.6619103424295232       -0.0794281379936147        0.9916681597167394
N        0.5927057410989209        0.3203188220854893        0.0210671821381173        0.9908100973831626
O        0.4560270922095014        1.2041865573983743        0.0022475556937323       -0.9105117118992263
O       -0.4195889147125882       -1.0165555976656289       -0.0049097600187413       -0.9857657640985744
N       -0.4980982978717243       -1.6540343688821386       -0.0018833371289948        0.5898789735882696
N       -1.8507628918516075       -0.3528653584107421       -0.0280649133828506        0.7295307509854581
N       -2.4586819661371422       -1.1249762019334129       -0.0238582906713484        0.5738107892156161
O       -2.2805151349579851       -0.8717550320291617       -0.0239919382569176       -0.9999678311737941

        RMSE         1.045341076E+00 kcal/mol
         MAE         6.642038770E-01 kcal/mol
     max. AE         1.225160443E+01 kcal/mol

Coordinates in bohr
s                   x[bohr]                   y[bohr]                   z[bohr]                      q[e]
-        2.6518487762675726       -3.0530739766326076       -0.1616591731543364       -0.9999992977995120
+        4.9541546269896486       -0.3942939951898314       -2.2908214110502634        0.0205458340818607
+        2.6115740272811943       -3.1405553922576352       -0.1500974274630032        0.9916681597167394
+        1.1200515236634745        0.6053148465708270        0.0398112044761787        0.9908100973831626
-        0.8617663100648608        2.2755827974408307        0.0042472647128675       -0.9105117118992263
-       -0.7929081340848744       -1.9210116708891358       -0.0092781017771437       -0.9857657640985744
+       -0.9412693665342727       -3.1256719592817279       -0.0035589913757063        0.5898789735882696
+       -3.4974349887598635       -0.6668188865578195       -0.0530350000282837        0.7295307509854581
+       -4.6462355456013764       -2.1258969193118915       -0.0450856351904139        0.5738107892156161
-       -4.3095490300320893       -1.6473782590248327       -0.0453381925244683       -0.9999678311737941
