1
s                      x[A]                      y[A]                      z[A]                      q[e]
N       -0.5635813915995330       -0.2030718178789842       -0.0908345573567339        0.0836684365844878

        RMSE         3.546826726E+00 kcal/mol
         MAE         2.961066917E+00 kcal/mol
     max. AE         1.059586342E+01 kcal/mol

Coordinates in bohr
s                   x[bohr]                   y[bohr]                   z[bohr]                      q[e]
+       -1.0650144795275165       -0.3837501195901306       -0.1716524361314176        0.0836684365844878
