3
s                      x[A]                      y[A]                      z[A]                      q[e]
O       -0.7793689959253207       -0.7691244462877787        0.0807103899693694       -0.9999999999999962
N       -0.9055899186934621       -1.3509032606025491        0.0465772253012706        0.4464124728026487
N       -0.4941095477194330       -0.5225664590191962        0.0848940017135478        0.5526578015113403

        RMSE         3.255056958E-01 kcal/mol
         MAE         2.205832860E-01 kcal/mol
     max. AE         2.551273800E+00 kcal/mol

Coordinates in bohr
s                   x[bohr]                   y[bohr]                   z[bohr]                      q[e]
-       -1.4727939529719143       -1.4534345598783014        0.1525205325210068       -0.9999999999999962
+       -1.7113169283062657       -2.5528371845268016        0.0880181995031465        0.4464124728026487
+       -0.9337317211635640       -0.9875074898965625        0.1604264129327529        0.5526578015113403
