5
s                      x[A]                      y[A]                      z[A]                      q[e]
O       -0.9030544466148778       -0.1917980571485488        0.0741324570835935       -0.9949756664795752
N       -0.7812328703897525       -0.0316521787195160        0.0716709213018728        0.7779235637468026
N       -0.9909378153195006       -1.4061231683010504       -0.0021893685551057        0.9999999984488580
O       -1.0019271435320816       -1.4226037016599049       -0.2999639374106766       -0.3595810367991122
O       -1.0380973923680936       -1.4329016808700734        0.2395301053720238       -0.4242965846029806

        RMSE         1.651699612E-01 kcal/mol
         MAE         1.063977275E-01 kcal/mol
     max. AE         1.792394745E+00 kcal/mol

Coordinates in bohr
s                   x[bohr]                   y[bohr]                   z[bohr]                      q[e]
-       -1.7065255804789961       -0.3624457994056662        0.1400900408952479       -0.9949756664795752
+       -1.4763161652419248       -0.0598139490539298        0.1354384124197810        0.7779235637468026
+       -1.8726010783133649       -2.6571876867500297       -0.0041373069568391        0.9999999984488580
-       -1.8933678989379097       -2.6883313811997360       -0.5668496892201524       -0.3595810367991122
-       -1.9617197631276324       -2.7077917415526134        0.4526462979551799       -0.4242965846029806
