7
s                      x[A]                      y[A]                      z[A]                      q[e]
O       -1.1615281219558553       -0.3672568800359026       -0.4266558334757023       -0.2470934974554777
O       -1.1702994068182415       -0.3720352044278023        0.2524054213514771       -0.6916717804128671
N       -1.0573321265275788       -0.2846249668577179        0.0673213481566364        0.7386671881828922
N       -0.8231496613408621       -1.8594195792736015        0.0463416061533371        0.2001602008726042
O       -0.9582608138155183       -1.6069243401609348        0.1920281108071642       -0.3029214254311759
N       -1.0937878590547956       -1.3268950767588590        0.0533230016209711        0.3867964904404966
O       -0.9381586133970676       -1.6431665304631380       -0.3905437408594915       -0.0848669018824797

        RMSE         9.060859827E-02 kcal/mol
         MAE         5.960992658E-02 kcal/mol
     max. AE         1.185070980E+00 kcal/mol

Coordinates in bohr
s                   x[bohr]                   y[bohr]                   z[bohr]                      q[e]
-       -2.1949700375139463       -0.6940149209579766       -0.8062626750980192       -0.2470934974554777
-       -2.2115453636722302       -0.7030446453972619        0.4769771189350773       -0.6916717804128671
+       -1.9980681427850477       -0.5378632358285981        0.1272189104126381        0.7386671881828922
+       -1.5555274201975908       -3.5137937571411277        0.0875729438436383        0.2001602008726042
-       -1.8108504948696647       -3.0366469072362006        0.3628805378146089       -0.3029214254311759
+       -2.0669594929644317       -2.5074682922925859        0.1007658692509792        0.3867964904404966
-       -1.7728628415597292       -3.1051347210940881       -0.7380207102362130       -0.0848669018824797
