3
s                      x[A]                      y[A]                      z[A]                      q[e]
O        0.7137587024305503        1.0621804226632765        0.3290515608861646       -0.5993842417313828
N        0.7486033455528884        1.0804497800746855       -0.0349923381441232        0.9999999991497538
O        0.7366706380265514        0.9591374768681116       -0.4178010695605319       -0.5756361022060965

        RMSE         1.803202494E-01 kcal/mol
         MAE         1.195955250E-01 kcal/mol
     max. AE         1.492327959E+00 kcal/mol

Coordinates in bohr
s                   x[bohr]                   y[bohr]                   z[bohr]                      q[e]
-        1.3488084672558907        2.0072300946566317        0.6218173312292624       -0.5993842417313828
+        1.4146552996964274        2.0417541766522982       -0.0661259355818042        0.9999999991497538
-        1.3921057505364611        1.8125071479433739       -0.7895295963927604       -0.5756361022060965
