1
s                      x[A]                      y[A]                      z[A]                      q[e]
O        1.5457785607303158       -0.9006160733828082       -0.0258794852768397       -0.4696755469017403

        RMSE         1.558089887E+00 kcal/mol
         MAE         1.240199246E+00 kcal/mol
     max. AE         5.871614710E+00 kcal/mol

Coordinates in bohr
s                   x[bohr]                   y[bohr]                   z[bohr]                      q[e]
-        2.9210981303846779       -1.7019177228787372       -0.0489051394410452       -0.4696755469017403
