2
s                      x[A]                      y[A]                      z[A]                      q[e]
N       -2.1264394493586716        0.4347949485896380        0.0392946227375123        0.2386256507705929
O       -1.6365004408833659        0.0624531969641302       -0.1760809761516381       -0.2880653091171761

        RMSE         1.044094666E+00 kcal/mol
         MAE         7.713468062E-01 kcal/mol
     max. AE         6.484932969E+00 kcal/mol

Coordinates in bohr
s                   x[bohr]                   y[bohr]                   z[bohr]                      q[e]
+       -4.0183881816572402        0.8216433735669323        0.0742560751770861        0.2386256507705929
-       -3.0925376374605507        0.1180194379214804       -0.3327448208298672       -0.2880653091171761
