11
s                      x[A]                      y[A]                      z[A]                      q[e]
N        2.7719476494758370       -1.0314718647215042        0.0810408551387209        0.8898668914761542
O        2.7318119106193737       -0.9664786823228131        0.0806065778129122       -0.9911569875420088
N       -2.4054136518379488       -0.0656579383991482       -1.0479466786516505        0.2636393862606666
O       -2.5583949891269175       -0.1031909808083377       -0.7363139852572851       -0.1340254898377385
O       -2.0054918719725130       -0.0808974107093137       -0.9030225085980172       -0.2383863024362718
O        2.3289048127704657        0.5431275837890855        0.5883619287109726       -0.3774190282894499
O        2.2976127083598357        0.1742075526020452        0.8066259696940629       -0.5564643309874449
N        2.2404242238240140        0.3807887540081434        0.7105781881405370        0.9878825453763278
N       -1.4075549782111871       -1.4367502990654184        0.0671162825379441        0.5386096308699442
N       -1.6915426277628680       -1.7358368462252505        0.0582357171813339        0.3954667360039595
O       -1.5650458968422158       -1.5115089859378052        0.0666322153044428       -0.9537734254730748

        RMSE         1.929808654E-01 kcal/mol
         MAE         1.234570466E-01 kcal/mol
     max. AE         2.235908994E+00 kcal/mol

Coordinates in bohr
s                   x[bohr]                   y[bohr]                   z[bohr]                      q[e]
+        5.2382218916159076       -1.9491993304389292        0.1531450211850842        0.8898668914761542
-        5.1623763373342957       -1.8263800156834766        0.1523243559768094       -0.9911569875420088
+       -4.5455730204110925       -0.1240755215365712       -1.9803322167347830        0.2636393862606666
-       -4.8346658501935327       -0.1950026923451331       -1.3914317744806617       -0.1340254898377385
-       -3.7898303848597834       -0.1528739504992820       -1.7064652263741396       -0.2383863024362718
-        4.4009922683968208        1.0263623845430205        1.1118429079098811       -0.3774190282894499
-        4.3418587611714994        0.3292045634041537        1.5243021684036249       -0.5564643309874449
+        4.2337881878688162        0.7195864567297229        1.3427981663096606        0.9878825453763278
+       -2.6598934153439044       -2.7150645759032690        0.1268313925555620        0.5386096308699442
+       -3.1965522960090778       -3.2802562378441786        0.1100495561923400        0.3954667360039595
-       -2.9575081188033123       -2.8563380195909396        0.1259166380579366       -0.9537734254730748
