12
s                      x[A]                      y[A]                      z[A]                      q[e]
N        2.3267796087744168       -0.8671981305687643        0.1446419764028358        0.5681118873672522
N        2.7398385291322040       -1.0805950621177991        0.0906700310335297        0.3274058761597338
O        2.4815113398193089       -0.8842687790985774        0.1196228493538522       -0.9924916568419225
N       -2.4073304577356422       -0.0965329497793237       -1.0720621824860239        0.2330905486175016
O       -2.5487239874540197       -0.1487678165576070       -0.6894039213317674       -0.1210558993295211
O       -2.0023301074179409       -0.1044411499719973       -0.9143092353301218       -0.2229451282458710
O        2.2985962877327530        0.5340588053980336        0.6492253899494314       -0.4261293869270124
O        2.2437400618277561        0.1731581405670817        0.8091394680386748       -0.5202447903139287
N        2.2096849970984946        0.3977402213493311        0.7305597650004186        0.9978455522573164
N       -1.3924015429539649       -1.4507612509071137        0.0660402249319939        0.5046729112008781
N       -1.6600985061342388       -1.7511372819102393        0.0457618726539138        0.3788191113070706
O       -1.5396913791383815       -1.5255199625166562        0.0605545755962622       -0.9028393998304336

        RMSE         1.460701601E-01 kcal/mol
         MAE         9.602049530E-02 kcal/mol
     max. AE         1.413345709E+00 kcal/mol

Coordinates in bohr
s                   x[bohr]                   y[bohr]                   z[bohr]                      q[e]
+        4.3969762148835603       -1.6387669632839827        0.2733337216462934        0.5681118873672522
+        5.1775444480370751       -2.0420287199247298        0.1713415264401331        0.3274058761597338
-        4.6893768094764070       -1.6710258137892788        0.2260544236256805       -0.9924916568419225
+       -4.5491952585933948       -0.1824208371654965       -2.0259039143591773        0.2330905486175016
-       -4.8163903056729112       -0.2811304295762276       -1.3027846011337143       -0.1210558993295211
-       -3.7838555157784621       -0.1973651696749423       -1.7277940487507006       -0.2229451282458710
-        4.3437174568089629        1.0092248770914622        1.2268581806979866       -0.4261293869270124
-        4.2400542135722734        0.3272214620653132        1.5290519918917331       -0.5202447903139287
+        4.1756994680492303        0.7516200874292105        1.3805578741296225        0.9978455522573164
+       -2.6312575728478977       -2.7415414376410521        0.1247979383851002        0.5046729112008781
+       -3.1371315178753836       -3.3091698708889892        0.0864774063039750        0.3788191113070706
-       -2.9095950242999935       -2.8828149280751720        0.1144315635202678       -0.9028393998304336
