4
s                      x[A]                      y[A]                      z[A]                      q[e]
O        2.6617230966287222       -0.5915170236469666        0.2405548913119067       -0.1083381490480922
N       -2.4968347067001551        0.0421868142989966       -0.9799602283001230        0.8726771541828364
O       -2.4339314110029755        0.0202546360592079       -0.9025174005658551       -0.9958460333744571
N        1.8459661059529078        0.8072747711121057        0.8705543033970361        0.0557466536607764

        RMSE         1.271211363E+00 kcal/mol
         MAE         9.422762366E-01 kcal/mol
     max. AE         6.808156497E+00 kcal/mol

Coordinates in bohr
s                   x[bohr]                   y[bohr]                   z[bohr]                      q[e]
-        5.0299276744338073       -1.1178051732387286        0.4545828627187784       -0.1083381490480922
+       -4.7183337762011170        0.0797215251306518       -1.8518564453283601        0.8726771541828364
-       -4.5994637749447573        0.0382757149227253       -1.7055107105295839       -0.9958460333744571
+        3.4883703771288630        1.5255282253935345        1.6451092107591196        0.0557466536607764
