5
s                      x[A]                      y[A]                      z[A]                      q[e]
O        2.6571407786389489       -0.5997581958814903        0.2513092121879045       -0.1089419649578496
N       -2.3551169409064001       -0.3556726022938177       -0.9075678000066875        0.8215472507152363
O       -2.2626747280499280       -0.3855032807469703       -0.7928765978598196       -0.9990382419529815
N        1.8206304372702296        0.7805289414175427        0.8495100630156256        0.0618351013557889
N       -1.6554030055636699       -1.9025947446908820       -0.2545300011242975        0.0488374802608696

        RMSE         1.010080586E+00 kcal/mol
         MAE         6.629791901E-01 kcal/mol
     max. AE         7.009550012E+00 kcal/mol

Coordinates in bohr
s                   x[bohr]                   y[bohr]                   z[bohr]                      q[e]
-        5.0212683484133773       -1.1333787317147057        0.4749055838397080       -0.1089419649578496
+       -4.4505260117391447       -0.6721238086641992       -1.7150545822969225        0.8215472507152363
-       -4.2758355470091356       -0.7284956210772535       -1.4983196212398213       -0.9990382419529815
+        3.4404929021132622        1.4749859322726731        1.6053413599199535        0.0618351013557889
+       -3.1282583077750776       -3.5953829952011263       -0.4809919928373954        0.0488374802608696
