2
s                      x[A]                      y[A]                      z[A]                      q[e]
O        0.3591002421028920       -1.2543611178979419       -0.0115079231435572       -0.4163457428198485
N        0.4926156531949210       -1.5755159016260720       -0.0037910256116941        0.5422979827165764

        RMSE         2.335507558E-01 kcal/mol
         MAE         1.595837097E-01 kcal/mol
     max. AE         1.521554080E+00 kcal/mol

Coordinates in bohr
s                   x[bohr]                   y[bohr]                   z[bohr]                      q[e]
-        0.6786011091600661       -2.3703989752502279       -0.0217468230141408       -0.4163457428198485
+        0.9309086696519152       -2.9772935603770336       -0.0071640001406982        0.5422979827165764
