3
s                      x[A]                      y[A]                      z[A]                      q[e]
N        1.9505276646766307        0.2874389059157499       -1.0058039879383589        0.9999999752390349
O        1.8592077215558005        0.3113853704740899       -1.1030847675201456       -0.4557365212310132
O        2.0958279702400637        0.1151026069071017       -0.9320589217707579       -0.5199123666967468

        RMSE         1.352291203E-01 kcal/mol
         MAE         8.812094094E-02 kcal/mol
     max. AE         1.217245802E+00 kcal/mol

Coordinates in bohr
s                   x[bohr]                   y[bohr]                   z[bohr]                      q[e]
+        3.6859630863676753        0.5431808099820074       -1.9006940730967870        0.9999999752390349
-        3.5133934040769197        0.5884330696702522       -2.0845281037773939       -0.4557365212310132
-        3.9605408698278999        0.2175124033806527       -1.7613360949362553       -0.5199123666967468
