37
s                      x[A]                      y[A]                      z[A]                      q[e]
N       -1.7770220702859210        1.1816311523385186        0.0107967040768065        0.5012350961838651
O       -1.8208757413727625        1.1289790559469817        0.0082308431547505       -0.6873213718352230
N       -2.1182606462141718        1.4830287346956559       -0.0251575472547611        0.1200927991082820
O       -2.7259181957211998       -0.3225318372477431        0.2068378396001811       -0.8683126103275063
N       -2.6649962558097418       -0.2974294194797180        0.2025867677998173        0.8789003502946692
N       -3.2442361047038397       -0.5785474383993382        0.0863440500498287        0.1140490486496099
N       -1.7825171194493470        0.2289841966738767        0.1507641603031029        0.9925159374984115
O       -1.8531270342108144       -0.2735522523611955       -0.2443678156171626       -0.8195184265551483
N       -1.9178547546806766       -0.4054438420460434       -0.1336341513543680        0.6741187306027475
O       -1.7961579974739348        0.0674157341598578        0.2805620428016634       -0.9007418242121555
O       -1.1143745920296919       -0.3378614106251573        0.3304522578827085       -0.5676296861218780
O       -0.3390932767969412       -0.3356967006261389        0.0624027955973179       -0.2359015047492212
O       -1.0736414813782476       -0.3039641243685282       -0.4202887023832754       -0.3699824627682001
N       -0.8570569477332910       -0.3081642996678324        0.0248937794936437        0.9917286664482394
N       -0.8076602602594497       -1.8330316149425205        0.0138931292696622        0.1273437380256150
O       -0.8392759889362169       -1.3600708050289014        0.2502039482553707       -0.5151293793916826
N       -0.8513960050720011       -1.2546863516036206        0.0330621274122563        0.9930206420211792
O       -0.8188436958394254       -1.3451934959456950       -0.2377984240136573       -0.4328815253020354
N        1.6913482290741784       -1.1646531075903426        0.0272929290991540        0.4848964224324839
O        1.3790268875753007       -0.6412886203027953       -0.0155413951702361       -0.8588273683693241
N        1.1136097762973647       -0.5749993205770070        0.0252521882177828        0.9921359507737723
O        1.4490678638075802       -0.9915162648162557        0.0352662373691812       -0.9934870600253267
O        0.5378482551525519        0.3281474782388046       -0.1683381361519654       -0.9456086852135014
N        0.2109467611120893        0.4589438616510628       -0.0338650815075483        0.7194732664858682
O        0.5686821911000406        0.3916623707345077        0.4304977408338808       -0.3297328072798416
N        0.9726681820357865       -0.1257672856354741       -0.0339346883764529        0.9861295667568607
O        1.7193901633651141        1.3584370918561732       -0.2528117981062397       -0.4585048576138757
O        1.9488955693779397        1.5659790222099144        0.0007435887377940       -0.6781646694550635
N        2.0499102770658513        1.6418253016805158       -0.0000777201989869        0.5421216617434356
N        1.7663825671357676        1.3419909746297412       -0.1469441006140752        0.6329213203075846
O        0.8525904697596061        1.0999729933575002        0.2938480845427988       -0.6367222072664485
N        0.8749513366666040        1.0999557463028558       -0.0480786353625230        0.9926349489152171
O        0.7858143876981474        0.9706221742707065       -0.4316123425616479       -0.5239277818692356
O        0.2785336254227023        1.9310100110157151       -0.2011680257146902       -0.8435108563628785
N        0.1580992860769077        2.0525809123236729       -0.0148384501000322        0.9832330150242374
N        0.3547440525435168        1.8211558652676145       -0.1100291693156796        0.6122464943853803
O        0.2187158440427328        1.9993036759520888        0.1136546796368074       -0.6728925709389134

        RMSE         4.652564401E-01 kcal/mol
         MAE         2.699752599E-01 kcal/mol
     max. AE         4.383910553E+00 kcal/mol

Coordinates in bohr
s                   x[bohr]                   y[bohr]                   z[bohr]                      q[e]
+       -3.3580850317344617        2.2329592592289376        0.0204028137627782        0.5012350961838651
-       -3.4409564596845010        2.1334612171177261        0.0155540393440777       -0.6873213718352230
+       -4.0029324836801017        2.8025181447590470       -0.0475408742997619        0.1200927991082820
-       -5.1512388303152168       -0.6094968391389723        0.3908668692257180       -0.8683126103275063
+       -5.0361130488509627       -0.5620601444705785        0.3828335077833735        0.8789003502946692
+       -6.1307177242123840       -1.0932962091599330        0.1631666071569996        0.1140490486496099
+       -3.3684691696992632        0.4327174187715984        0.2849029725074855        0.9925159374984115
-       -3.5019025703403583       -0.5169388379647839       -0.4617882453928135       -0.8195184265551483
+       -3.6242202347535883       -0.7661778207204053       -0.2525319470677349        0.6741187306027475
-       -3.3942466932765103        0.1273972741088031        0.5301854220941208       -0.9007418242121555
-       -2.1058627801049177       -0.6384655344423948        0.6244642649374818       -0.5676296861218780
-       -0.6407934241302826       -0.6343748254032100        0.1179241931418565       -0.2359015047492212
-       -2.0288883567357185       -0.5744089470211201       -0.7942305411284453       -0.3699824627682001
+       -1.6196029051367444       -0.5823461280157179        0.0470424254705247        0.9917286664482394
+       -1.5262566943063509       -3.4639277315470349        0.0262542093452436        0.1273437380256150
-       -1.5860017627622243       -2.5701613327355752        0.4728169377108725       -0.5151293793916826
+       -1.6089052738949861       -2.3710135778807282        0.0624783659341562        0.9930206420211792
-       -1.5473903246942058       -2.5420472930845288       -0.4493738944513063       -0.4328815253020354
+        3.1961849357283061       -2.2008754045091172        0.0515761611589396        0.4848964224324839
-        2.6059831371598410       -1.2118598597449977       -0.0293689804792593       -0.8588273683693241
+        2.1044174878343775       -1.0865912382148710        0.0477197198001226        0.9921359507737723
-        2.7383413997985504       -1.8736941894396406        0.0666435301031389       -0.9934870600253267
-        1.0163858992936852        0.6201088626309732       -0.3181129737972458       -0.9456086852135014
+        0.3986316055542266        0.8672782054805165       -0.0639957292655728        0.7194732664858682
-        1.0746535936043480        0.7401346143357487        0.8135228278043578       -0.3297328072798416
+        1.8380764749945964       -0.2376657253932724       -0.0641272671842532        0.9861295667568607
-        3.2491765115662594        2.5670740622715660       -0.4777450597053310       -0.4585048576138757
-        3.6828788732425020        2.9592714701889795        0.0014051790644055       -0.6781646694550635
+        3.8737690054158338        3.1026001660233509       -0.0001468698905013        0.5421216617434356
+        3.3379792846697263        2.5359954048864353       -0.2776841059123216        0.6329213203075846
-        1.6111624850210899        2.0786477028457182        0.5552924022762675       -0.6367222072664485
+        1.6534183994031293        2.0786151106359694       -0.0908554533209204        0.9926349489152171
-        1.4849739781938356        1.8342100806680350       -0.8156291198087998       -0.5239277818692356
-        0.5263522687797652        3.6490800663370053       -0.3801524737998223       -0.8435108563628785
+        0.2987643513157635        3.8788157746341083       -0.0280406068153331        0.9832330150242374
+        0.6703691039422682        3.4414858171269676       -0.2079249958182625        0.6122464943853803
-        0.4133130445391121        3.7781363891705340        0.2147762173902148       -0.6728925709389134
