2
s                      x[A]                      y[A]                      z[A]                      q[e]
O       -0.3286767208698096       -0.0000076196575584        0.5026786800868741       -0.2164963960462509
O        0.3286601388556021       -0.0000058957528169        0.5026928138073631       -0.2164883633228883

        RMSE         1.733128659E+00 kcal/mol
         MAE         1.264046399E+00 kcal/mol
     max. AE         9.161386123E+00 kcal/mol

Coordinates in bohr
s                   x[bohr]                   y[bohr]                   z[bohr]                      q[e]
-       -0.6211089862574894       -0.0000143990659552        0.9499250344708237       -0.2164963960462509
-        0.6210776507920287       -0.0000111413581273        0.9499517433316816       -0.2164883633228883
