32
s                      x[A]                      y[A]                      z[A]                      q[e]
O       -1.7732664412902610        1.1114046299265221       -0.3093837649072439       -0.9185179709639263
N       -1.9146421670709302        1.3594045199278948       -0.2100248042702874        0.1916838052157702
N       -1.7332550300893361        1.0473197933382405       -0.2916522423119482        0.8484264680021835
N       -3.0087028530880060       -0.7531063048256492        0.0317923736482180        0.4281917960943180
N       -2.5906956312972214       -0.7812039149565655        0.0550379525895701        0.5729119620476919
O       -2.7608898080863442       -0.7367192645573886        0.0458163687783692       -0.9647494610093913
O       -1.6994042209324649       -0.1643842178907398        0.2133172152621945       -0.6043714950444387
N       -1.4165550471364940        0.0195744837497036       -0.1446430638852066        0.9378851028541617
N       -2.1860238253070383       -0.2484260452811861        0.0628259966696195        0.3171858952912125
O       -1.4868128514430223       -0.0676893055150124       -0.2945497981689327       -0.8052699305265784
O       -1.0070827586002389       -0.4769418331398974        0.3201388720662613       -0.4354422478020977
O       -1.1135841109211446       -0.4031975530062932       -0.3159701963669728       -0.6481780643083194
N       -1.0466823412836037       -0.4507764752079192       -0.0856239009781978        0.9189851562748155
O       -0.9079413465833727       -1.5441538022058430        0.1554043320334813       -0.5797334395666157
N       -0.9444394411765736       -1.4359687400786101        0.0198334876633055        0.9856566616335311
N       -0.7666621462960154       -1.9458917249958714       -0.0269661259936501        0.2051256324254287
O       -0.8635042821311906       -1.5424180332067237       -0.1890194732470083       -0.4747260672334833
N        0.7210686773917500        0.8997960829399442       -0.0860879828385756        0.9900598577437025
O        0.7185936420459128        0.9995619098814446       -0.0988821630167476       -0.8227206426528798
N        0.5094815980386066        1.7693554643584430       -0.0064660589215760        0.3029486975571610
O        0.5014792393738399        1.3791276899345388        0.0024276238872190       -0.8768874336385981
N        0.5478087802697398       -0.3997931378448231       -0.0828689258806637        0.8997312226157750
O        0.6528019261678509       -0.2209536348953378       -0.2424538001876761       -0.9898266871440948
O        0.7755237577623235       -0.2574459411059661        0.4090605190141675       -0.3350617116456346
N        0.5999385906370095        0.3369676124267665       -0.0131955838953045        0.9893776666060581
N        2.6670467894450964       -0.0490502572372756       -0.1710041560044787        0.8431769641789051
O        2.5681621879801497       -0.1018671428137568       -0.2025783915067464       -0.9904314515998196
N        1.9582367249683348       -0.3682250747060428       -0.1770696264560382        0.8126040868465074
O        1.5954159367026470       -0.5316184857934649       -0.3449028769661934       -0.6969706353655487
N        1.3656334330236140       -0.8474998789880728        0.0409471671066432        0.4501574789274078
O        1.5087266235914127       -0.5936037785260714        0.2738090455085915       -0.6229911262102557
N        1.7835255226786368       -2.1175301533235285        0.0209533555603390        0.0717699103970525

        RMSE         4.852397600E-01 kcal/mol
         MAE         2.828287215E-01 kcal/mol
     max. AE         4.260819366E+00 kcal/mol

Coordinates in bohr
s                   x[bohr]                   y[bohr]                   z[bohr]                      q[e]
-       -3.3509879215038363        2.1002503651269380       -0.5846505833377216       -0.9185179709639263
+       -3.6181493240171285        2.5689022363731997       -0.3968893596237288        0.1916838052157702
+       -3.2753773124410124        1.9791475751803667       -0.5511428618452455        0.8484264680021835
+       -5.6856243852199109       -1.4231646594760361        0.0600788790733545        0.4281917960943180
+       -4.8957052175718205       -1.4762614474033573        0.1040066569002200        0.5729119620476919
-       -5.2173255998510140       -1.3921976413621746        0.0865803890540946       -0.9647494610093913
-       -3.2114085540093860       -0.3106411511610832        0.4031111146908802       -0.6043714950444387
+       -2.6769010807229781        0.0369904133341646       -0.2733357766901405        0.9378851028541617
+       -4.1309863335559696       -0.4694571880120268        0.1187239272645064        0.3171858952912125
-       -2.8096690890383282       -0.1279142490458156       -0.5566184488481626       -0.8052699305265784
-       -1.9031105994250106       -0.9012894424082123        0.6049747903182153       -0.4354422478020977
-       -2.1043689873024150       -0.7619329496366598       -0.5970971349407086       -0.6481780643083194
+       -1.9779429653789926       -0.8518440819421980       -0.1618057226421144        0.9189851562748155
-       -1.7157604830219599       -2.9180277817534210        0.2936716262529925       -0.5797334395666157
+       -1.7847318859041630       -2.7135876434673110        0.0374798597962939        0.9856566616335311
+       -1.4487814872551517       -3.6772024300368975       -0.0509585927925880        0.2051256324254287
-       -1.6317866013880180       -2.9147476537280257       -0.3571950368151486       -0.4747260672334833
+        1.3626223179165122        1.7003681655162313       -0.1626827102580215        0.9900598577437025
-        1.3579451789620522        1.8888982551154889       -0.1868602067945278       -0.8227206426528798
+        0.9627806862535587        3.3435972462197170       -0.0122190804728519        0.3029486975571610
-        0.9476584200194652        2.6061736260116009        0.0045875442824633       -0.8768874336385981
+        1.0352085638309141       -0.7554995373641250       -0.1565995742253186        0.8997312226157750
-        1.2336168546285802       -0.4175418563765902       -0.4581712804311836       -0.9898266871440948
-        1.4655275059566910       -0.4865023208010216        0.7730123496744110       -0.3350617116456346
+        1.1337196283971060        0.6367765006360087       -0.0249360396276275        0.9893776666060581
+        5.0399879958328224       -0.0926915525617066       -0.3231510211635295        0.8431769641789051
-        4.8531231810390265       -0.1925010011008998       -0.3828176788835229       -0.9904314515998196
+        3.7005310990036380       -0.6958445437206695       -0.3346130991390341        0.8126040868465074
-        3.0148991765587647       -1.0046133413802421       -0.6517719773485826       -0.6969706353655487
+        2.5806731761833865       -1.6015426626461089        0.0773789314449110        0.4501574789274078
-        2.8510801167744715       -1.1217485684511996        0.5174241066842568       -0.6229911262102557
+        3.3703747756266482       -4.0015520521801919        0.0395961034183797        0.0717699103970525
