1
s                      x[A]                      y[A]                      z[A]                      q[e]
O       -1.5317334704661252       -0.3625947970956915        0.1944605660398090       -0.1240147350106760

        RMSE         2.648605279E+00 kcal/mol
         MAE         2.241627445E+00 kcal/mol
     max. AE         9.736985241E+00 kcal/mol

Coordinates in bohr
s                   x[bohr]                   y[bohr]                   z[bohr]                      q[e]
-       -2.8945567563780235       -0.6852048610268086        0.3674772120167444       -0.1240147350106760
