7
s                      x[A]                      y[A]                      z[A]                      q[e]
O        1.3349689151455486       -0.2839676907119525        0.3998729661425468       -0.9999997202577653
O        0.9255129153666255       -0.4820422937016479       -0.2404925777370908       -0.5308959900717952
N        0.7819239235502187       -0.4164339808355014        0.0506075488903989        0.9741391532229029
N        1.4231059594500797       -0.4486213888388096        0.4961327437544111        0.6847831634619499
N        1.2766731509432210       -1.1907357935871685        0.7305259162597578        0.6255780424900241
N        1.0094551975024064       -1.4262081875917851        1.0040856775730207        0.3085420195751726
O        1.1631162742513816       -1.2004499151159260        0.7714991251659954       -0.9999999928161561

        RMSE         6.335666886E-02 kcal/mol
         MAE         3.992425599E-02 kcal/mol
     max. AE         8.073334235E-01 kcal/mol

Coordinates in bohr
s                   x[bohr]                   y[bohr]                   z[bohr]                      q[e]
-        2.5227256356246377       -0.5366211639243050        0.7556503909838843       -0.9999997202577653
-        1.7489659356169520       -0.9109279159836194       -0.4544651071284781       -0.5308959900717952
+        1.4776220664533377       -0.7869461731132514        0.0956344072835710        0.9741391532229029
+        2.6892805108675444       -0.8477715589278734        0.9375550075677848        0.6847831634619499
+        2.4125626070079700       -2.2501645376594324        1.3804939092800821        0.6255780424900241
+        1.9075938591994892       -2.6951428724340554        1.8974469371077625        0.3085420195751726
-        2.1979712103980082       -2.2685215668981975        1.4579220525940404       -0.9999999928161561
