8
s                      x[A]                      y[A]                      z[A]                      q[e]
O        1.3371989730401801       -0.2291326928236903        0.4733441586425023       -0.9221080122805253
O        0.9952940370535928       -0.4491457537955343       -0.1924421121474856       -0.6190002130899700
N        0.8089828752129761       -0.3855677205903861        0.0516756329151621        0.9104089765417531
N        1.3648495447247999       -0.4234510274866852        0.5502101982098832        0.7760328273392756
N        1.0161660520836502       -1.3753250649616648        1.1701134375410864        0.1643065017159743
O        0.9479087461194372       -1.2967926845743249        0.5598147723257125       -0.4820388414113309
O        1.0107811114274960       -1.0852987739658091        0.9050398757824639       -0.6363734375151111
N        0.9696686908135300       -1.2133733423213899        0.6996777981426910        0.8709188743042672

        RMSE         4.611433145E-02 kcal/mol
         MAE         3.031869106E-02 kcal/mol
     max. AE         4.305020533E-01 kcal/mol

Coordinates in bohr
s                   x[bohr]                   y[bohr]                   z[bohr]                      q[e]
-        2.5269398342894065       -0.4329980358254309        0.8944908229195915       -0.9221080122805253
-        1.8808331443325659       -0.8487624650858707       -0.3636628869633888       -0.6190002130899700
+        1.5287560743379509       -0.7286173947328769        0.0976527935693502        0.9104089765417531
+        2.5791918419856770       -0.8002064694935499        1.0397465860505462        0.7760328273392756
+        1.9202755364258139       -2.5989877062550426        2.2111939326706578        0.1643065017159743
-        1.7912879220918723       -2.4505830153426946        1.0578966006811250       -0.4820388414113309
-        1.9100994733838392       -2.0509174470905398        1.7102774978472297       -0.6363734375151111
+        1.8324082580688168       -2.2929433049188153        1.3221994145530520        0.8709188743042672
