1
s                      x[A]                      y[A]                      z[A]                      q[e]
O        1.9313988013149173        0.7310136608919595       -0.5857426135066057       -0.0150795385721943

        RMSE         1.696227162E+00 kcal/mol
         MAE         1.299453872E+00 kcal/mol
     max. AE         7.367487167E+00 kcal/mol

Coordinates in bohr
s                   x[bohr]                   y[bohr]                   z[bohr]                      q[e]
-        3.6498147735227322        1.3814156130541053       -1.1068931195373801       -0.0150795385721943
