1
s                      x[A]                      y[A]                      z[A]                      q[e]
N        1.1797146412157280       -1.5388269355573660        1.1868821445671907        0.0135965227131920

        RMSE         1.137781962E+00 kcal/mol
         MAE         8.754224641E-01 kcal/mol
     max. AE         5.233784208E+00 kcal/mol

Coordinates in bohr
s                   x[bohr]                   y[bohr]                   z[bohr]                      q[e]
+        2.2293375780904694       -2.9079614626809644        2.2428821964280350        0.0135965227131920
