11
s                      x[A]                      y[A]                      z[A]                      q[e]
O        1.4734397539994113        0.0707902963679729       -0.1794802725836556       -0.2787172573779093
N        1.7166079102110225        0.2742762795116606       -1.4590296355992840        0.1388444023932194
N        2.9835498303708121        0.0142608963663984        0.1341554559410641        0.1430798676786741
O        1.0272701784189768        0.0285770753683901        0.1966576770718692       -0.9775570208774109
N        0.5962705506807523        0.0463387993693228        0.1243505815040986        0.9980045917664606
N        1.4764021819395832       -0.2068750075637126        1.5601950274677150        0.1295344396995351
O       -0.8598121471950035       -1.3372675890735310       -0.0912836683639669       -0.2505876642166495
N       -0.0382491016452691       -0.2129413562132038        0.2035104914275886        0.2752564398074162
N       -2.1787402077632279        0.9295808407523785       -0.3042415384800730        0.2768753232910116
O       -1.1419143990897553        1.1614888200900078       -0.0361065350033945       -0.7976988154173131
N       -0.9114636057255755        1.9492721062480280        0.0846898661663157        0.3429656932529657

        RMSE         5.992699024E-01 kcal/mol
         MAE         3.435890966E-01 kcal/mol
     max. AE         6.929773998E+00 kcal/mol

Coordinates in bohr
s                   x[bohr]                   y[bohr]                   z[bohr]                      q[e]
-        2.7843975974208428        0.1337742724754609       -0.3391685601056265       -0.2787172573779093
+        3.2439188150933349        0.5183070509865586       -2.7571664202091819        0.1388444023932194
+        5.6380920610569953        0.0269491884360297        0.2535170699645354        0.1430798676786741
-        1.9412592940620650        0.0540028459128242        0.3716291501345602       -0.9775570208774109
+        1.1267880374625436        0.0875676397905581        0.2349885425841680        0.9980045917664606
+        2.7899957748941722       -0.3909371064974335        2.9483413042151350        0.1295344396995351
-       -1.6248094775403898       -2.5270694998002550       -0.1725011329350165       -0.2505876642166495
+       -0.0722803266543571       -0.4024008440265129        0.3845790924554756        0.2752564398074162
+       -4.1172222911955885        1.7566532004948225       -0.5749331837152771        0.2768753232910116
-       -2.1579054729963874        2.1948957677512748       -0.0682314624956721       -0.7976988154173131
+       -1.7224165881436133        3.6835904248031062        0.1600406526560138        0.3429656932529657
