5
s                      x[A]                      y[A]                      z[A]                      q[e]
O        1.2643199155034519       -0.3736015311959288        0.3528929211145450       -0.9999954252009655
O        0.8736190877769325       -0.4207288449962665       -0.0960614464023495       -0.6382085916581677
N        0.7054031154412812       -0.3493153232366221        0.0630523463896972        0.9999655150488393
N        1.4263803517914568       -0.5526563588197472        0.4212930278253597        0.6411412261805851
N        0.9856817219525206       -1.6074039697615921        1.2022474691351781        0.0592439512340415

        RMSE         1.168382525E-01 kcal/mol
         MAE         7.583054519E-02 kcal/mol
     max. AE         1.484780744E+00 kcal/mol

Coordinates in bohr
s                   x[bohr]                   y[bohr]                   z[bohr]                      q[e]
-        2.3892183752635070       -0.7060045740119945        0.6668709725192841       -0.9999954252009655
-        1.6509008138707051       -0.7950622901231419       -0.1815298249157867       -0.6382085916581677
+        1.3330186962287334       -0.6601102923429907        0.1191516662440274        0.9999655150488393
+        2.6954682156200436       -1.0443691596620721        0.7961284411548140        0.6411412261805851
+        1.8626685013599369       -3.0375532758231052        2.2719184516903002        0.0592439512340415
