8
s                      x[A]                      y[A]                      z[A]                      q[e]
O        1.3025177320770294       -0.2612094199692522        0.3901740785955795       -0.9723123998791524
O        1.0030548290491998       -0.4630675047741118       -0.2242060275250759       -0.5320845788941500
N        0.7969322326423159       -0.3650480848270220        0.0385952764435756        0.8142785840255868
N        1.3213014227627440       -0.4806659368431642        0.4439806107556669        0.8307427134605150
N        1.0206939687012833       -1.5812822968942966        1.1486301250433946        0.0838781087087199
O        0.9390111023273144       -1.1398816063967205        0.6055746018124611       -0.5006485351673429
O        0.9163732278714247       -0.9252046515207063        0.8518500614567808       -0.6341268592815335
N        0.9016902889335889       -1.0141186486427840        0.7396269857651588        0.9724196426316897

        RMSE         5.491244121E-02 kcal/mol
         MAE         3.580298696E-02 kcal/mol
     max. AE         5.059664955E-01 kcal/mol

Coordinates in bohr
s                   x[bohr]                   y[bohr]                   z[bohr]                      q[e]
-        2.4614017871780423       -0.4936142651315816        0.7373221497985025       -0.9723123998791524
-        1.8954989157209086       -0.8750707616222068       -0.4236879876992529       -0.5320845788941500
+        1.5059836602436203       -0.6898409029459689        0.0729345022146919        0.8142785840255868
+        2.4968978181993560       -0.9083269784701897        0.8390017593417066        0.8307427134605150
+        1.9288320587520498       -2.9881904681651141        2.1705963557823948        0.0838781087087199
-        1.7744738121628800       -2.1540640515367198        1.1443701459587292       -0.5006485351673429
-        1.7316944293787508       -1.7483834013737845        1.6097633161077352       -0.6341268592815335
+        1.7039476960694206       -1.9164065046542567        1.3976924380940459        0.9724196426316897
