3
s                      x[A]                      y[A]                      z[A]                      q[e]
O       -0.7677207636608154        0.8865031535225906       -0.2650277011242015       -0.5847205370830947
N       -0.9736082012165322        1.0202184768581806        0.1117356929416669        0.9999999999409380
O       -0.9435096634200181        0.8411308853772128        0.4673441539940154       -0.6532147457259589

        RMSE         2.504068792E-01 kcal/mol
         MAE         1.751960369E-01 kcal/mol
     max. AE         1.632961594E+00 kcal/mol

Coordinates in bohr
s                   x[bohr]                   y[bohr]                   z[bohr]                      q[e]
-       -1.4507819841462777        1.6752481695123913       -0.5008297707844326       -0.5847205370830947
+       -1.8398528537988830        1.9279335093936967        0.2111498580980017        0.9999999999409380
-       -1.7829748605867304        1.5895070090267929        0.8831524573824773       -0.6532147457259589
