2
s                      x[A]                      y[A]                      z[A]                      q[e]
O       -0.7840328426722168        0.0416333013735895       -0.4284006140079530       -0.5048697222172783
N       -0.8108571980742493       -0.2000110118870575       -0.2414860329955392        0.9999999976899696

        RMSE         1.117409438E+00 kcal/mol
         MAE         8.200185544E-01 kcal/mol
     max. AE         7.079628092E+00 kcal/mol

Coordinates in bohr
s                   x[bohr]                   y[bohr]                   z[bohr]                      q[e]
-       -1.4816073460146553        0.0786755372947313       -0.8095598324530037       -0.5048697222172783
+       -1.5322980312164418       -0.3779660345422288       -0.4563424654848415        0.9999999976899696
