2
s                      x[A]                      y[A]                      z[A]                      q[e]
O       -0.1696419858915235        2.2810792230365040        0.0250453709181483       -0.9582030454339278
N       -0.1483561163982467        2.2791935217299164        0.0526189569505739        0.9999998567561331

        RMSE         6.164462217E-01 kcal/mol
         MAE         4.663454973E-01 kcal/mol
     max. AE         2.688128355E+00 kcal/mol

Coordinates in bohr
s                   x[bohr]                   y[bohr]                   z[bohr]                      q[e]
-       -0.3205768927137603        4.3106150020111258        0.0473288917458066       -0.9582030454339278
+       -0.2803524290292293        4.3070515429872573        0.0994354176438402        0.9999998567561331
