8
s                      x[A]                      y[A]                      z[A]                      q[e]
N       -2.2475712630080240        0.2067325164473556       -0.1873929938695306        0.2247546952053601
N       -1.6530246195961640       -0.5447430273418282       -0.0598678645986395        0.4395602004919487
O       -2.1768105234207384       -0.3355537205221822       -0.4721775445775101       -0.3727293875882066
O       -2.1334833877586532        0.7593593449812933        0.5701147615916065       -0.9999425750789278
N       -2.1285738064019730        0.7517609979930073        0.6267596984480402        0.9986431451186065
N       -2.5393404435454903       -0.7723992672721032       -0.0030466041765086        0.8081834328043278
O       -2.3975617731657985       -0.6573319070922724        0.0623183980013741       -0.9882015827000787
N       -2.0331648905686661        0.2140487704417200       -1.0299647501367744        0.1001609356523656

        RMSE         2.173646325E-01 kcal/mol
         MAE         1.245988750E-01 kcal/mol
     max. AE         2.506638850E+00 kcal/mol

Coordinates in bohr
s                   x[bohr]                   y[bohr]                   z[bohr]                      q[e]
+       -4.2472941345345108        0.3906678373122081       -0.3541214362430106        0.2247546952053601
+       -3.1237638096758591       -1.0294151304288408       -0.1131338678074209        0.4395602004919487
-       -4.1135757162796986       -0.6341046321653424       -0.8922862418426492       -0.3727293875882066
-       -4.0316992960778011        1.4349811928216938        1.0773607594888199       -0.9999425750789278
+       -4.0224215319230217        1.4206223980076358        1.1844041765413318        0.9986431451186065
+       -4.7986579775995821       -1.4596230746485770       -0.0057572475062773        0.8081834328043278
-       -4.5307351201504051       -1.2421772779292850        0.1177647047998756       -0.9882015827000787
+       -3.8421248110712147        0.4044935536258437       -1.9463512966341066        0.1001609356523656
