4
s                      x[A]                      y[A]                      z[A]                      q[e]
O       -2.4831531122357662        0.0840173696481342       -0.0817975080474330       -0.9652952473055749
O       -1.8395212558804224       -0.5438510802240553       -0.2764260569479775       -0.8211288796895478
N       -2.4648469421442489        0.1488470271629394       -0.0772013781674701        0.9999998868045752
N       -1.7796603353727218       -0.5504102689828728       -0.2041910291222790        0.9999879826959487

        RMSE         7.128021534E-02 kcal/mol
         MAE         4.825617609E-02 kcal/mol
     max. AE         5.235434066E-01 kcal/mol

Coordinates in bohr
s                   x[bohr]                   y[bohr]                   z[bohr]                      q[e]
-       -4.6924793097038417        0.1587698184163267       -0.1545748879545811       -0.9652952473055749
-       -3.4761913755722285       -1.0277295946578584       -0.5223695415718865       -0.8211288796895478
+       -4.6578856618248272        0.2812801159265375       -0.1458894612444179        0.9999998868045752
+       -3.3630706301948727       -1.0401246650172054       -0.3858651223164909        0.9999879826959487
