3
s                      x[A]                      y[A]                      z[A]                      q[e]
N        1.0440441302492522        0.1340166148891354        0.0764185740714955        0.3274463060991899
N        0.2249267212517300        0.4630758464052607       -0.0106853565084103        0.7806184721307221
O        0.3912997377059072        1.1901391035635782       -0.0022204207225498       -0.9999999985166186

        RMSE         5.202878998E-01 kcal/mol
         MAE         3.381759952E-01 kcal/mol
     max. AE         4.213701563E+00 kcal/mol

Coordinates in bohr
s                   x[bohr]                   y[bohr]                   z[bohr]                      q[e]
+        1.9729574690629077        0.2532546984014197        0.1444101758931392        0.3274463060991899
+        0.4250499014629647        0.8750865250205176       -0.0201923973537737        0.7806184721307221
-        0.7394493372276485        2.2490369569330535       -0.0041959870489104       -0.9999999985166186
