6
s                      x[A]                      y[A]                      z[A]                      q[e]
O        0.3920738427100259        0.4501390073096444        0.0065642266133078       -0.7821822709024975
N        0.9476830261192624        0.2463945344705183        0.0432587537844178        0.6563907327068773
N        0.0812291373800779        0.4116138472161557       -0.0038682732573346        0.9825446866083263
O        0.0574105502113769        1.3764583973567466        0.0028588485538118       -0.5329932021969278
O        0.6625810723000883        1.5372356147609252        0.0024524135169618       -0.9999999924177647
N        0.5377235105780985        1.6224305608355665        0.0040302220072922        0.7843048259152798

        RMSE         5.193205062E-02 kcal/mol
         MAE         3.275144104E-02 kcal/mol
     max. AE         5.686890116E-01 kcal/mol

Coordinates in bohr
s                   x[bohr]                   y[bohr]                   z[bohr]                      q[e]
-        0.7409121836777792        0.8506394422006873        0.0124045905245933       -0.7821822709024975
+        1.7908613731105034        0.4656181889589579        0.0817471971811620        0.6563907327068773
+        0.1535008230555363        0.7778374406845763       -0.0073099770347951        0.9825446866083263
-        0.1084902166113474        2.6011293940908562        0.0054024408008655       -0.5329932021969278
-        1.2520967625593391        2.9049543021979458        0.0046343898934286       -0.9999999924177647
+        1.0161501662123316        3.0659494175521660        0.0076160158185752        0.7843048259152798
