3
s                      x[A]                      y[A]                      z[A]                      q[e]
O        0.1773695276995188        1.1365933774488270        0.0065223075645254       -0.9999999996422178
O        0.8913090519146173        1.3984102989429090       -0.0158341756632118       -0.2251638844192870
N        0.2214565916747102        0.9008749318962821        0.0194172695789476        0.6341453256620351

        RMSE         2.350200878E-01 kcal/mol
         MAE         1.594707971E-01 kcal/mol
     max. AE         1.574943674E+00 kcal/mol

Coordinates in bohr
s                   x[bohr]                   y[bohr]                   z[bohr]                      q[e]
-        0.3351798303538965        2.1478501993873986        0.0123253750029548       -0.9999999996422178
-        1.6843300012600999        2.6426124760217067       -0.0299222554258600       -0.2251638844192870
+        0.4184923069425465        1.7024068945744459        0.0366933216083948        0.6341453256620351
