2
s                      x[A]                      y[A]                      z[A]                      q[e]
O       -2.1415189457113146        0.7432208417188930        0.5554446554944852       -0.9434597797873641
N       -2.1248275565906436        0.7103634225483738        0.5670439400162132        0.9999999938968871

        RMSE         6.604723083E-01 kcal/mol
         MAE         4.996425080E-01 kcal/mol
     max. AE         3.377748672E+00 kcal/mol

Coordinates in bohr
s                   x[bohr]                   y[bohr]                   z[bohr]                      q[e]
-       -4.0468842998735752        1.4044838415809495        1.0496382767338517       -0.9434597797873641
+       -4.0153421457820606        1.3423923181593005        1.0715577477311797        0.9999999938968871
