23
s                      x[A]                      y[A]                      z[A]                      q[e]
N        1.6081567223724813       -0.1702880620072765       -0.1847835790213397        0.4490633091970704
O        1.8522266458550778       -0.0411618077632004       -0.2449360713955142       -0.2416416769291827
O        2.1090896466172468       -0.2793599640861165        0.8678545546294221       -0.8221370612473289
N        2.2331066631104917       -0.2364127976915533        0.9704297791029510        0.6903958985533172
N        2.2783397563706029       -0.2965328210598717       -1.0042351048051699        0.3507610653059287
O        2.0303131358689850       -0.4072186734567708       -0.8025940672930632       -0.5011586711581869
N        1.6931949865222291       -2.0032805038653239       -0.0755638262562132        0.0345084705445457
N        1.0252129297595476        0.3212699651995843        0.0445813218222681        0.5608712034908672
N       -0.0674076309581979        0.2959907407521495       -0.0082259682533477        0.4228037924737718
O        0.7285419683329589        1.1863222387001349        0.0040154965175332       -0.6154522956168252
O       -0.1199397746177004        1.3590639761576335        0.0036804988157930       -0.2604065515307653
N       -1.1188221593258365       -0.5828304890648187       -0.0133619880302026        0.4354615177141638
O       -0.5356106922836680       -0.6783779362920355        0.3882084605368109       -0.5163844658137403
O       -0.4917794570200663       -0.6764789640541387       -0.2541656729775555       -0.9931067975594862
N       -0.1291975287487113       -0.5918451693105760       -0.0747476939009927        0.5252031177693701
N       -0.4715926385752828       -1.7611748424592388       -0.0043096741895657        0.2815759280031891
N       -2.4724269426418655       -0.0489768454116569       -0.2421712104500797        0.6675975687548179
N       -1.6215737293120904       -0.4109467149888109       -0.1169248297448633        0.4599876522953085
O       -2.2395470118125727        0.0274802641785268       -0.3993874657740736       -0.9932121360561116
N       -2.0765497504133137        0.7437183929387845        1.0704065988832430        0.0596199057696442
N       -2.7532562543490862       -0.9594591364389518        0.0179626842446797        0.2198681764228056
O       -2.4639100682553239       -0.5960479465676570        0.0587579173352884       -0.4705435661410314
N       -2.1244892669204112        0.4267239809908558       -0.8821427010060818        0.2563256157578579

        RMSE         5.136091996E-01 kcal/mol
         MAE         2.958677617E-01 kcal/mol
     max. AE         4.098959344E+00 kcal/mol

Coordinates in bohr
s                   x[bohr]                   y[bohr]                   z[bohr]                      q[e]
+        3.0389757720979094       -0.3217977996287331       -0.3491903568322268        0.4490633091970704
-        3.5002010829414649       -0.0777845435011926       -0.4628620931831070       -0.2416416769291827
-        3.9856018061452301       -0.5279138225404949        1.6400074249807868       -0.8221370612473289
+        4.2199600022138490       -0.4467554401903044        1.8338465064931158        0.6903958985533172
+        4.3054381602827521       -0.5603658190125509       -1.8977293136522098        0.3507610653059287
-        3.8367357757118299       -0.7695317660055401       -1.5166829771011596       -0.5011586711581869
+        3.1996748015252714       -3.7856515047746244       -0.1427949366159223        0.0345084705445457
+        1.9373716575237785        0.6071122465625817        0.0842464885549833        0.5608712034908672
+       -0.1273819612769266        0.5593414356929519       -0.0155448271155378        0.4228037924737718
-        1.3767447910512622        2.2418241276832624        0.0075881886758674       -0.6154522956168252
-       -0.2266533255765922        2.5682587019136749        0.0069551347669206       -0.2604065515307653
+       -2.1142674642191741       -1.1013900018991509       -0.0252504978687287        0.4354615177141638
-       -1.0121575182830009       -1.2819485091452256        0.7336076700001758       -0.5163844658137403
-       -0.9293284878942843       -1.2783599716957528       -0.4803035124202575       -0.9931067975594862
+       -0.2441479454210286       -1.1184252786722071       -0.1412526699824307        0.5252031177693701
+       -0.8911809296893032       -3.3281381112942983       -0.0081441039082336        0.2815759280031891
+       -4.6722097867961567       -0.0925528243169174       -0.4576372632212614        0.6675975687548179
+       -3.0643302406371378       -0.7765767434854279       -0.2209559054835768        0.4599876522953085
-       -4.2321304974132294        0.0519301731526449       -0.7547329282536610       -0.9932121360561116
+       -3.9241103141689715        1.4054240771199318        2.0227753147721224        0.0596199057696442
+       -5.2029002739236310       -1.8131149964378941        0.0339445537005210        0.2198681764228056
-       -4.6561152267606660       -1.1263673766543931        0.1110363714659860       -0.4705435661410314
+       -4.0147028709542507        0.8063914552377899       -1.6670081084731263        0.2563256157578579
