10
s                      x[A]                      y[A]                      z[A]                      q[e]
N        2.6761514782293618       -0.0908194325337477       -0.0100398240445498        0.9999998457288246
O        2.6286650769850879       -0.1243436099942983       -0.0104789734958536       -0.9456397755960904
N        1.4082171407669435       -0.2161104251358296       -0.0942723488456837        0.6277580061625552
O        1.3749903820142058       -0.4026460704070448       -0.2276329449441526       -0.8269880887821937
N        1.2956543516019170       -0.9228683675776158        0.0617248334796114        0.4754166553021483
O        1.3506990921097828       -0.5278214249760704        0.2921780394409186       -0.5165736922490700
O        1.6290767041366176       -1.6613476030589782       -0.3072895190876312       -0.1012339577009981
N        1.7003227480389325       -2.0053865002505691       -0.0385663718054476        0.1437287165705599
O        1.7298644079722256       -1.3890652180942709        0.1432323371163463       -0.9975125362648554
N        1.7731921391325920       -1.3552411654736027        0.1112979564361341        0.9988128696985077

        RMSE         5.315964794E-02 kcal/mol
         MAE         3.015909260E-02 kcal/mol
     max. AE         7.585382915E-01 kcal/mol

Coordinates in bohr
s                   x[bohr]                   y[bohr]                   z[bohr]                      q[e]
+        5.0571933640926110       -0.1716238543582778       -0.0189725177919855        0.9999998457288246
-        4.9674570710573338       -0.2349753683399646       -0.0198023899830947       -0.9456397755960904
+        2.6611447212248169       -0.4083895163629753       -0.1781489205219626        0.6277580061625552
-        2.5983552471454843       -0.7608907985611246       -0.4301639230758686       -0.8269880887821937
+        2.4484318777852652       -1.7439684645700386        0.1166430304159556        0.4754166553021483
-        2.5524513619920262       -0.9974379363536593        0.5521364744165516       -0.5165736922490700
-        3.0785088081816991       -3.1394919689672927       -0.5806930322992687       -0.1012339577009981
+        3.2131443186794186       -3.7896312611639420       -0.0728798803648746        0.1437287165705599
-        3.2689699652447537       -2.6249528325975193        0.2706698894591425       -0.9975125362648554
+        3.3508475107753113       -2.5610346366913825        0.2103226559874299        0.9988128696985077
