12
s                      x[A]                      y[A]                      z[A]                      q[e]
O        2.5109729894790931       -0.1012178368530690       -0.1158035367647298       -0.9997072000357723
N        2.4836839423508486       -0.3954957244937586        0.0070432163903606        0.8870702482560743
O        2.5064867004846785       -0.4664711705281909        0.0672596136166851       -0.5333471355241549
N        2.6751157549867477        0.0097388015979089       -0.0953221505922819        0.5891923479577215
N        1.8316403407257575       -0.1656870078835007       -0.2179779830911829        0.4890826823790251
O        1.5143102655934229       -0.3632688496070414       -0.3827929822148370       -0.4885939486182805
N        1.4864417556786358       -1.1136898859207274        0.1921050686218690        0.5198872885542620
O        1.4539910346334306       -0.6036061026999596        0.3978163319789005       -0.4338060290830466
O        1.7501983952792983       -1.5961970980940785       -0.2809124706474002       -0.1101935326324519
N        1.8056571849189609       -1.9476379270058233       -0.0549070370226911        0.1521083894076450
O        1.4776528910041986       -1.6201770395741493        0.2544455793644034       -0.7454113005053695
N        1.4483216336865243       -1.6975315429040925        0.2459636460084798        0.5314862327137360

        RMSE         4.667878222E-02 kcal/mol
         MAE         2.682592347E-02 kcal/mol
     max. AE         5.629350761E-01 kcal/mol

Coordinates in bohr
s                   x[bohr]                   y[bohr]                   z[bohr]                      q[e]
-        4.7450512585375861       -0.1912739906635726       -0.2188369688447260       -0.9997072000357723
+        4.6934824332404927       -0.7473786030827271        0.0133097500201172        0.8870702482560743
-        4.7365734010184877       -0.8815027577200161        0.1271022490396488       -0.5333471355241549
+        5.0552361308222995        0.0184036678102188       -0.1801327583090605        0.5891923479577215
+        3.4612986043119420       -0.3131030674463885       -0.4119186894220129        0.4890826823790251
-        2.8616316709408736       -0.6864786356674367       -0.7233738991332912       -0.4885939486182805
+        2.8089678196773202       -2.1045688730825467        0.3630259670076148        0.5198872885542620
-        2.7476448443282515       -1.1406502217578947        0.7517639156743328       -0.4338060290830466
-        3.3073956322936566       -3.0163753576483519       -0.5308476347492974       -0.1101935326324519
+        3.4121975559619973       -3.6805022735954309       -0.1037592623332595        0.1521083894076450
-        2.7923592724889228       -3.0616908795501914        0.4808324588321663       -0.7454113005053695
+        2.7369312292431873       -3.2078697054145997        0.4648039277750853        0.5314862327137360
