4
s                      x[A]                      y[A]                      z[A]                      q[e]
O        1.4744340585343485       -0.5280673118668489       -0.4994590550168997       -0.1983721581167660
O        1.4895305901403610       -0.5069556443259808        0.5004560355087765       -0.1967248219789052
N        1.7090370135399144       -1.8949839906667467        0.0045188856224879        0.1248120307849993
N        2.7432820978697987        0.0244929460326832        0.0002064031074948        0.1280529921800601

        RMSE         1.750203521E-01 kcal/mol
         MAE         1.113100052E-01 kcal/mol
     max. AE         1.890044988E+00 kcal/mol

Coordinates in bohr
s                   x[bohr]                   y[bohr]                   z[bohr]                      q[e]
-        2.7862765606771749       -0.9979025952350709       -0.9438408248619141       -0.1983721581167660
-        2.8148048708568569       -0.9580073255311126        0.9457248449439855       -0.1967248219789052
+        3.2296118938608003       -3.5810007544872846        0.0085394562187712        0.1248120307849993
+        5.1840518498453170        0.0462849600073902        0.0003900453446085        0.1280529921800601
