7
s                      x[A]                      y[A]                      z[A]                      q[e]
N        2.6872885655325716       -0.0492802886553632       -0.1721613319260747        0.8427994806817060
O        2.5862210897433067       -0.1011863739872031       -0.2021069466960129       -0.9999999981943856
N        1.9583981055057100       -0.3689708332243121       -0.1776453039215982        0.8161218998081532
O        1.5817804904527148       -0.5299510079949507       -0.3447399378083071       -0.6963015746314082
N        1.3711153011512651       -0.8469098628666410        0.0410111305458408        0.4512148656881398
O        1.5016406637024908       -0.5950732083404066        0.2730517674109385       -0.6258737491506617
N        1.7883759906279708       -2.1376182432558593        0.0208299501367914        0.0698071186678447

        RMSE         9.568921571E-02 kcal/mol
         MAE         5.626778086E-02 kcal/mol
     max. AE         1.308882818E+00 kcal/mol

Coordinates in bohr
s                   x[bohr]                   y[bohr]                   z[bohr]                      q[e]
+        5.0782394089309912       -0.0931262489421429       -0.3253377667343202        0.8427994806817060
-        4.8872495594979410       -0.1912145344639642       -0.3819267773079682       -0.9999999981943856
+        3.7008360640212565       -0.6972538230759258       -0.3357009718855400        0.8161218998081532
-        2.9891319175479918       -1.0014622650207685       -0.6514640669650649       -0.6963015746314082
+        2.5910324056005236       -1.6004276937669981        0.0774998048270369        0.4512148656881398
-        2.8376895932484296       -1.1245253883608755        0.5159930584788848       -0.6258737491506617
+        3.3795408316312003       -4.0395130405358639        0.0393629009654786        0.0698071186678447
