9
s                      x[A]                      y[A]                      z[A]                      q[e]
N        2.6804340343219115       -0.0805426113464025       -0.0029383072385087        0.9653491277881514
O        2.6195790360431630       -0.1206296435250987       -0.0053924882478386       -0.9450458479187795
N        1.5868789136454060       -0.1561137000543890       -0.2304911432547840        0.4929789930613753
O        1.4766059971636132       -0.3666743755338638       -0.2588547601569952       -0.8426458078686653
N        1.3162433938972313       -0.8688022684309969        0.1536888708338875        0.5387985957812425
O        1.3232104250213821       -0.6997431623678472        0.4145705210092402       -0.4424211137055564
N        1.7981324193209511       -1.8623663675514064       -0.0795085371455725        0.4960459630323259
O        1.8437620578896705       -1.6172880897277557       -0.1005477884690455       -0.9999445694272155
N        1.9467603863710150       -1.4033564476237954       -0.1107979280696299        0.5946527021265100

        RMSE         6.432166851E-02 kcal/mol
         MAE         3.619905095E-02 kcal/mol
     max. AE         1.028344903E+00 kcal/mol

Coordinates in bohr
s                   x[bohr]                   y[bohr]                   z[bohr]                      q[e]
+        5.0652862222244410       -0.1522034768738930       -0.0055525959532317        0.9653491277881514
-        4.9502869421123989       -0.2279569888740438       -0.0101903259231649       -0.9450458479187795
+        2.9987665410538606       -0.2950121375346661       -0.4355651350952083        0.4929789930613753
-        2.7903809298477875       -0.6929141469822772       -0.4891646029677940       -0.8426458078686653
+        2.4873395289088771       -1.6417983445110798        0.2904298744069109        0.5387985957812425
-        2.5005053096410625       -1.3223229350369998        0.7834247443958248       -0.4424211137055564
+        3.3979778098234918       -3.5193623799358886       -0.1502493598409225        0.4960459630323259
-        3.4842053299219988       -3.0562315555503243       -0.1900077827269626       -0.9999445694272155
+        3.6788439621316829       -2.6519593424043766       -0.2093777393197769        0.5946527021265100
