1
s                      x[A]                      y[A]                      z[A]                      q[e]
O        0.4914986919158307        1.5949221147749399       -0.0292885377373566       -0.3235166499742856

        RMSE         2.045873006E+00 kcal/mol
         MAE         1.632299983E+00 kcal/mol
     max. AE         8.502025428E+00 kcal/mol

Coordinates in bohr
s                   x[bohr]                   y[bohr]                   z[bohr]                      q[e]
-        0.9287979187416936        3.0139659883606527       -0.0553473149387404       -0.3235166499742856
