29
s                      x[A]                      y[A]                      z[A]                      q[e]
N        1.6833012639343110        0.2928286988828727       -1.5918667187707185        0.1082222304096700
O        1.8138553508019517       -0.1021721708144335       -1.4176460796011088       -0.0326885073730627
N        1.7889561032931929        0.0378028886478111       -0.6871717561099251        0.1640220079011479
O        1.7387126506107238        0.0242059725858192        0.0694558730481402       -0.9128355474327641
N        1.9461722167374438        0.0020151812007124        0.2179720251387371        0.6364578751755462
N        3.3588646088275382        0.0508499659701588        0.1066494762135551        0.0612229519423992
O        1.3724089207491270        0.3114134352282170        0.3534202582557621       -0.5041682636821965
O        1.1946891435283544       -0.1678441284709963        0.2576920327192673       -0.6345539099209501
N        0.6509062664527001       -0.0063094588577430        0.3871696479475514        0.9872686309525922
N        1.3311184057190744        0.0385384630221860        0.6394471126468071        0.9972293882503501
N        1.1122000417514721       -0.2496335815192929        1.9049458943634825        0.0850698603923993
O        0.9710605502863470        0.0118240223526145        0.7531504622638010       -0.9210694116755002
N       -0.8959035274416766       -0.7432166924949090       -0.0227771926610812        0.2806476047345476
N       -1.2391567412661155       -1.6331028697426775       -0.1724079021848970        0.2440493184473477
O       -1.0563912119688541       -1.1955378902700977       -0.1130446654107072       -0.9992157272972158
N       -0.8744326553681401       -0.2523546674984698       -0.0283997280640435        0.9931321831031846
N       -0.2144743273485685        0.2691511445521848        0.1509314576138316        0.9934347399934387
O       -0.6072044778634719        0.2723041875998053        0.2273666930695314       -0.9974891729297644
O       -0.5287669890547939        0.3072191851830925       -0.3009118959331117       -0.4172440142222136
N       -2.2391978814547691        0.6608795838576172       -0.2514731377063757        0.7690584754278509
N       -2.6158143627955148        0.9535150317381261       -0.3542714437072447        0.1277076983111743
O       -2.2226094486157204        0.6892440248613226       -0.2331698314995921       -0.8914259579041743
O       -0.9315055678249428        0.8359795744592564       -0.3006121139584026       -0.3455707339009396
O       -1.3044108589120664        0.6534569533902888        0.2900709188748067       -0.5934131637999418
N       -1.4712734580960087        0.6423125089497483        0.1126304020580835        0.5469199186870153
O       -0.8369735849690912        1.8426658987673015       -0.0747864784628246       -0.4410476215038895
N       -0.8755405049043178        1.7000403132084072        0.0419095009886620        0.7933408137826148
O       -0.9018031402840194        2.0164885322383612        0.2587492486279269       -0.5880772751297408
N       -0.8658628493546384        2.1750001893152362        0.2092870877482548        0.4910156092610743

        RMSE         4.759324564E-01 kcal/mol
         MAE         2.813527953E-01 kcal/mol
     max. AE         4.254543269E+00 kcal/mol

Coordinates in bohr
s                   x[bohr]                   y[bohr]                   z[bohr]                      q[e]
+        3.1809783754728507        0.5533660425627880       -3.0081921267078560        0.1082222304096700
-        3.4276898442119217       -0.1930774204827749       -2.6789628332750830       -0.0326885073730627
+        3.3806370856903798        0.0714371062955418       -1.2985664201976603        0.1640220079011479
-        3.2856907205231134        0.0457426587875386        0.1312525778655528       -0.9128355474327641
+        3.6777324826089224        0.0038081405625178        0.4119074305236219        0.6364578751755462
+        6.3473342031770876        0.0960925091724506        0.2015383014671483        0.0612229519423992
-        2.5934769923510075        0.5884861043693309        0.6678674952919663       -0.5041682636821965
-        2.2576352863263685       -0.3171794345763417        0.4869673665519329       -0.6345539099209501
+        1.2300345769398817       -0.0119231492409782        0.7316445987107977        0.9872686309525922
+        2.5154492273651079        0.0728271404080153        1.2083799146172463        0.9972293882503501
+        2.1017534756330440       -0.4717391007886142        3.5998260241623008        0.0850698603923993
-        1.8350384912775650        0.0223441639477329        1.4232481049405450       -0.9210694116755002
+       -1.6930123016963605       -1.4044760006839865       -0.0430426560362315        0.2806476047345476
+       -2.3416668675077648       -3.0861171585128901       -0.3258037169941777        0.2440493184473477
-       -1.9962900719616021       -2.2592391852181377       -0.2136234575702523       -0.9992157272972158
+       -1.6524382338026358       -0.4768812080530819       -0.0536677080785209        0.9931321831031846
+       -0.4052977396305842        0.5086219495571399        0.2852191186062885        0.9934347399934387
-       -1.1474501653135822        0.5145803373789217        0.4296607799524447       -0.9974891729297644
-       -0.9992247934965175        0.5805601204823564       -0.5686410712058484       -0.4172440142222136
+       -4.2314707366548978        1.2488814153974368       -0.4752153581745922        0.7690584754278509
+       -4.9431727407225061        1.8018822664922871       -0.6694760026772426        0.1277076983111743
-       -4.2001231417385450        1.3024824405961462       -0.4406271222533789       -0.8914259579041743
-       -1.7602904075282233        1.5797724422047745       -0.5680745653762993       -0.3455707339009396
-       -2.4649792784170170        1.2348546766837070        0.5481545936332805       -0.5934131637999418
+       -2.7803038914567111        1.2137947288707045        0.2128406132899796        0.5469199186870153
-       -1.5816508498341890        3.4821338893907994       -0.1413259621821888       -0.4410476215038895
+       -1.6545317660142271        3.2126105942014358        0.0791974789231753        0.7933408137826148
-       -1.7041609542146223        3.8106110610569415        0.4889652150747765       -0.5880772751297408
+       -1.6362436474888160        4.1101546806247242        0.3954952774388620        0.4910156092610743
