27
s                      x[A]                      y[A]                      z[A]                      q[e]
N        1.6823270968534549        0.2919507667598791       -1.5848460967491418        0.1083514730813881
O        1.8137169130501407       -0.1017613192548400       -1.4166728611350530       -0.0324730281304206
N        1.7825979535043581        0.0381065529929959       -0.6880717754403876        0.1647911255846033
O        1.7484088484123734        0.0242524629712974        0.0694201624211945       -0.9109063797437518
N        1.9446813466707435        0.0020330702985317        0.2161822336075544        0.6376836274159352
N        3.3564940880032546        0.0511508153495525        0.1071716633318148        0.0615167936730532
O        1.3676240580866115        0.3128994018909800        0.3542262252629286       -0.5043771367021767
O        1.1910554551170283       -0.1677824431588583        0.2590643323993000       -0.6392816692196139
N        0.6481824887452474       -0.0062722604234288        0.3888139656311835        0.9864554145788529
N        1.3359356484128253        0.0386344681734528        0.6398929292556041        0.9947799089816527
N        1.1041924047574756       -0.2512127786021256        1.8976990745814377        0.0849218591716023
O        0.9667833190145030        0.0118045460588649        0.7539337026818462       -0.9170483718577506
N       -0.8926935704401875       -0.7453571400438940       -0.0229951845998169        0.2789821062981274
N       -1.2349380495699016       -1.6361410372619827       -0.1713798828308628        0.2434530358966541
O       -1.0522898596402002       -1.1962302045555011       -0.1140114207983710       -0.9999218723050123
N       -0.8782491122001841       -0.2523584228679183       -0.0283850771135746        0.9947150258100962
N       -0.2149197224743550        0.2703611921035969        0.1506950279877603        0.9927538959956093
O       -0.6070473569465565        0.2711052483461165        0.2259586544895842       -0.9943478087305980
O       -0.5289598926930813        0.3065681429270857       -0.2991451096079337       -0.4164433716428537
N       -2.6956694421301739        0.9384155384698663       -0.2403157804881010        0.6942411093940775
O       -2.6980682488618450        0.9326127180566872       -0.2149752503330742       -0.6107453067385051
O       -1.0016239595584373        0.7426614876988293       -0.3312571481142863       -0.3431602510371863
O       -1.2520610807501633        0.6108736150582933        0.2348978714636233       -0.6513963968267019
N       -1.3020054042067128        0.6016046561925822        0.0465399783516605        0.6377763174830757
O       -0.8114431766435311        2.0998625914992490        0.3723841903188094       -0.9892467183686275
N       -0.8404096498549828        2.1936904935451493        0.3335360445920081        0.7160266734460161
N       -0.7389997509438095        1.9294532027610403        0.3732607965506331        0.4128999444924541

        RMSE         4.749614499E-01 kcal/mol
         MAE         2.819548094E-01 kcal/mol
     max. AE         4.211799992E+00 kcal/mol

Coordinates in bohr
s                   x[bohr]                   y[bohr]                   z[bohr]                      q[e]
+        3.1791374664895957        0.5517069912935885       -2.9949250738567179        0.1083514730813881
-        3.4274282347755749       -0.1923010235569260       -2.6771237169139996       -0.0324730281304206
+        3.3686219239248443        0.0720109487420075       -1.3002672102398525        0.1647911255846033
-        3.3040138788264977        0.0458305128835592        0.1311850945608571       -0.9109063797437518
+        3.6749151464942158        0.0038419460580276        0.4085252147080228        0.6376836274159352
+        6.3428545680444968        0.0966610321045187        0.2025250921069011        0.0615167936730532
-        2.5844349123709240        0.5912941743935135        0.6693905522016659       -0.5043771367021767
-        2.2507686104037119       -0.3170628662304376        0.4895606371092481       -0.6392816692196139
+        1.2248873830461686       -0.0118528543878286        0.7347519087961096        0.9864554145788529
+        2.5245524967361597        0.0730085638505427        1.2092223859100530        0.9947799089816527
+        2.0866212348023061       -0.4747233507732900        3.5861315194936862        0.0849218591716023
-        1.8269556955985362        0.0223073590866072        1.4247282148210394       -0.9170483718577506
+       -1.6869463620890504       -1.4085208603374755       -0.0434546010979995        0.2789821062981274
+       -2.3336946955941773       -3.0918584630476387       -0.3238610419633829        0.2434530358966541
-       -1.9885396393164374       -2.2605474696102923       -0.2154503604832476       -0.9999218723050123
+       -1.6596502919848313       -0.4768883046728394       -0.0536400217946570        0.9947150258100962
+       -0.4061394144359347        0.5109086080280898        0.2847723313650693        0.9927538959956093
-       -1.1471532498120316        0.5123146705483890        0.4269999726622660       -0.9943478087305980
-       -0.9995893285414851        0.5793298289224033       -0.5653023289290579       -0.4164433716428537
+       -5.0940769703917184        1.7733483595820818       -0.4541310087481530        0.6942411093940775
-       -5.0986100581424818        1.7623826182459574       -0.4062443468812470       -0.6107453067385051
-       -1.8927949642620943        1.4034268156758554       -0.6259852870362201       -0.3431602510371863
-       -2.3660525349625470        1.1543838297285254        0.4438926445192438       -0.6513963968267019
+       -2.4604336278167049        1.1368680360041972        0.0879478129693747        0.6377763174830757
-       -1.5334053702277719        3.9681651990277098        0.7037041331529141       -0.9892467183686275
+       -1.5881440714178265        4.1454742368207462        0.6302917772473848        0.7160266734460161
+       -1.3965071360653452        3.6461381251058178        0.7053606788509306        0.4128999444924541
