19
s                      x[A]                      y[A]                      z[A]                      q[e]
O        1.5232830488829630        0.1092957645481663       -0.2038844097609936       -0.2914585367500412
N        1.6731759477444426        0.2875881407122592       -1.3189576241519179        0.1774621822944650
N        2.9371696558671494        0.0259865202686493        0.1586862154617092        0.1416810558407377
O        1.3624316494399527        0.3038334233379395        0.3602956449594776       -0.5111467910333720
O        1.1898875053254687       -0.1647682453452952        0.2604346517357827       -0.6364328887239429
N        0.6673359118040126       -0.0062833960608217        0.3708141217565105        0.9822243746724876
N        1.3265219350924944        0.0377851886037329        0.6523183445061075        0.9913764674757609
N        1.1238400914304161       -0.2527501660263930        1.9104628329524369        0.0849181570867821
O        0.9521956802562352        0.0120758529836799        0.7408218018318808       -0.9274659116253751
N       -0.8900508406563270       -0.7416949276409944       -0.0229946175459716        0.2838434995718919
N       -1.2310434759735791       -1.6272208971017557       -0.1713878417732211        0.2449008409941757
O       -1.0522488826935110       -1.2026098135837904       -0.1117547398274187       -0.9855326434305323
N       -0.8860274957155296       -0.2521281845510165       -0.0286029704255458        0.9871054343317229
N       -0.2175291517995157        0.2716208409511546        0.1515667983487058        0.9944562352192756
O       -0.6346307048244744        0.2702369131206787        0.2250263340794360       -0.9979613388812989
O       -0.5370822505879459        0.3184408478621287       -0.2985129247749440       -0.4324455363260860
N       -2.2592558344344438        0.9605667707966336       -0.3154750660506341        0.2343861025506490
O       -1.2379665859206559        1.0169948577671564       -0.0343806040557016       -0.6145943676176456
N       -0.9135574116600798        1.9079518423802315        0.1281585686460409        0.2746836643503452

        RMSE         4.981090976E-01 kcal/mol
         MAE         2.866455936E-01 kcal/mol
     max. AE         4.556251529E+00 kcal/mol

Coordinates in bohr
s                   x[bohr]                   y[bohr]                   z[bohr]                      q[e]
-        2.8785877739411889        0.2065390616685575       -0.3852856956988986       -0.2914585367500412
+        3.1618443009403352        0.5434628228757984       -2.4924686807316663        0.1774621822944650
+        5.5504462335941307        0.0491074062614060        0.2998734871080219        0.1416810558407377
-        2.5746226820972797        0.5741619578689925        0.6808600931686030       -0.5111467910333720
-        2.2485615051693788       -0.3113668578748496        0.4921501653596195       -0.6364328887239429
+        1.2610821069922638       -0.0118738976927336        0.7007371335719780        0.9822243746724876
+        2.5067631567371600        0.0714036580598256        1.2327030177285911        0.9913764674757609
+        2.1237499816129715       -0.4776285919538784        3.6102515271463944        0.0849181570867821
-        1.7993890535282964        0.0228200548704478        1.3999503132304472       -0.9274659116253751
+       -1.6819523265739635       -1.4016002818827407       -0.0434535295215336        0.2838434995718919
+       -2.3263350181216884       -3.0750018411441120       -0.3238760821846885        0.2449008409941757
-       -1.9884622041097373       -2.2726031834612570       -0.2111858514956155       -0.9855326434305323
+       -1.6743493065276103       -0.4764532173103088       -0.0540517804788516        0.9871054343317229
+       -0.4110705212042265        0.5132889993642223        0.2864197385915478        0.9944562352192756
-       -1.1992782229245245        0.5106737547872238        0.4252381424259115       -0.9979613388812989
-       -1.0149383604557294        0.6017659896180061       -0.5641076727340391       -0.4324455363260860
+       -4.2693747744237935        1.8152081220210601       -0.5961614742464173        0.2343861025506490
-       -2.3394177998580967        1.9218417521788635       -0.0649699256930806       -0.6145943676176456
+       -1.7263733079196846        3.6055064426613197        0.2421845953717039        0.2746836643503452
