10
s                      x[A]                      y[A]                      z[A]                      q[e]
N        1.5251064229121587       -0.1265231025896444       -0.2114727224607280        0.2988924153474175
O        1.6763421474415514       -0.8039452350945334       -0.1837050508578641       -0.3250926706435826
O        2.1066431136251262       -0.2489308106081304        0.7283744723098720       -0.9999790272872660
N        2.1097537066393230       -0.3486089740514983        0.6368801834600710        0.7458152539118346
N        2.3766568383493376       -0.0596780703413488        1.0950161517525003        0.2197082032397840
N        2.2676129129366975       -0.1216997985407470       -0.9676682559078691        0.8034670806048383
O        2.1721982855018194       -0.1259103469358370       -0.8705267080475323       -0.9248734666712080
N        1.6958751696047076       -1.6386003005753100        0.2616062071439052        0.4409669405663031
O        1.6597932790904066       -1.4555480175913011        0.2804116366906487       -0.9998188822019436
N        1.5950690829420071       -1.3056590525646099        0.1913790315117295        0.7039068233815841

        RMSE         1.311361361E-01 kcal/mol
         MAE         7.894076169E-02 kcal/mol
     max. AE         1.764558615E+00 kcal/mol

Coordinates in bohr
s                   x[bohr]                   y[bohr]                   z[bohr]                      q[e]
+        2.8820334514806416       -0.2390940124376321       -0.3996255284557302        0.2988924153474175
-        3.1678275512263783       -1.5192363141954754       -0.3471522339846648       -0.3250926706435826
-        3.9809785288332247       -0.4704110562375787        1.3764282694405245       -0.9999790272872660
+        3.9868566977178190       -0.6587754858341663        1.2035291214708708        0.7458152539118346
+        4.4912305186767458       -0.1127752086409567        2.0692806297649935        0.2197082032397840
+        4.2851673640020049       -0.2299792887654041       -1.8286279839653117        0.8034670806048383
-        4.1048598497874904       -0.2379360720701101       -1.6450570631062211       -0.9248734666712080
+        3.2047396135172415       -3.0965057971802135        0.4943640842217700        0.4409669405663031
-        3.1365547223564576       -2.7505871157006321        0.5299011957367077       -0.9998188822019436
+        3.0142437179455701       -2.4673380225718589        0.3616539557125322        0.7039068233815841
