12
s                      x[A]                      y[A]                      z[A]                      q[e]
N        1.7200255553906376       -0.1843391559006548       -0.2355343021563153        0.1898433386224693
O        1.4117935321583261       -0.4945516595725218       -0.1384505075007899       -0.2518715563410983
O        2.1022360212694986       -0.2729697589285809        0.6243019154606156       -0.8760585171925289
N        2.2979204895494139       -0.3452761292489105        0.7423886924458277        0.3395505409311556
N        2.3184926581604759       -0.0710765502324003        0.9458558384661055        0.2345067762717132
N        2.2716112495197334       -0.2236389917853085       -0.9849385634626575        0.3791435766360711
N        1.5471685958133690       -0.4375615694311157       -0.0700069015563535        0.6355094803458525
O        2.0280859318709452       -0.2717022367526645       -0.7604762155480089       -0.6198155148613294
O        1.9355802529414252       -1.4188524928630857       -0.0212714331369361       -0.4498714825014464
N        1.5601898175065931       -1.9552128729878702       -0.0507233418994879        0.0797633119496338
N        1.6590193252044230       -1.5691998199727311        0.3824676144417390        0.0150632842625723
N        2.1018847511724523       -1.4934039083935686       -0.0032402232301225        0.2872294321246964

        RMSE         1.123458203E-01 kcal/mol
         MAE         6.760825394E-02 kcal/mol
     max. AE         1.097145867E+00 kcal/mol

Coordinates in bohr
s                   x[bohr]                   y[bohr]                   z[bohr]                      q[e]
+        3.2503772284767987       -0.3483505188503110       -0.4450953242262670        0.1898433386224693
-        2.6679031214719755       -0.9345671914827205       -0.2616335411071377       -0.2518715563410983
-        3.9726503312714900       -0.5158380849072646        1.1797596398192898       -0.8760585171925289
+        4.3424403833263696       -0.6524773219386200        1.4029113073593573        0.3395505409311556
+        4.3813161478080174       -0.1343152138815825        1.7874084888662189        0.2345067762717132
+        4.2927231251013414       -0.4226164454477462       -1.8612641353462869        0.3791435766360711
+        2.9237249159964263       -0.8268715292503087       -0.1322938708333955        0.6355094803458525
-        3.8325269701300098       -0.5134428151368382       -1.4370917723103711       -0.6198155148613294
-        3.6577165719036824       -2.6812426239343399       -0.0401971829247974       -0.4498714825014464
+        2.9483314588154901       -3.6948168469166367       -0.0958532243579919        0.0797633119496338
+        3.1350921614782150       -2.9653578958661906        0.7227590431520859        0.0150632842625723
+        3.9719865269920094       -2.8221243815521557       -0.0061231344902778        0.2872294321246964
