5
s                      x[A]                      y[A]                      z[A]                      q[e]
N        2.0554267613372219       -0.7190358158295845       -0.3068085206428447        0.9999999988641284
O        1.9734901323542384       -0.8831255163424500       -0.4273626878602207       -0.8129165332807335
O        2.4491317366076086       -0.2929712967087268        0.6280218683547679       -0.9962557376396755
N        2.5625440144491862       -0.2211507518767718        0.8070906169142289        0.7162919927617809
N        1.5755399325714647       -1.9040902672755169       -0.1999045743512808        0.0558729495422611

        RMSE         5.831753507E-01 kcal/mol
         MAE         3.852582600E-01 kcal/mol
     max. AE         5.969588009E+00 kcal/mol

Coordinates in bohr
s                   x[bohr]                   y[bohr]                   z[bohr]                      q[e]
+        3.8841936498641205       -1.3587807663130493       -0.5797840769718510        0.9999999988641284
-        3.7293558614430316       -1.6688653602907619       -0.8075984362953381       -0.8129165332807335
-        4.6281882273552988       -0.5536355133997382        1.1867893319888418       -0.9962557376396755
+        4.8425063717402095       -0.4179143534861774        1.5251802243946941        0.7162919927617809
+        2.9773389722823618       -3.5982091233005229       -0.3777648967501423        0.0558729495422611
