7
s                      x[A]                      y[A]                      z[A]                      q[e]
N        1.6054993753857596       -0.1718480585855703       -0.1867923629631590        0.4485593780020277
O        1.8422127015055734       -0.0411647643577122       -0.2459466950200284       -0.2409447843072524
O        2.1482207982008252       -0.2813770305043615        0.8746940949910148       -0.8198896509317037
N        2.2690175314923415       -0.2364690215947093        0.9717347684087972        0.6937115489942585
N        2.2844472669789564       -0.2957354128879646       -1.0053282479084893        0.3444654019722542
O        2.0312513673801766       -0.4089136258353510       -0.7977900533986713       -0.4979485037583461
N        1.6899437157120560       -2.0095622961907114       -0.0758659431609130        0.0350392802765233

        RMSE         1.827064671E-01 kcal/mol
         MAE         1.097169123E-01 kcal/mol
     max. AE         2.159137943E+00 kcal/mol

Coordinates in bohr
s                   x[bohr]                   y[bohr]                   z[bohr]                      q[e]
+        3.0339541140726949       -0.3247457659183597       -0.3529864083274827        0.4485593780020277
-        3.4812774706853258       -0.0777901306550840       -0.4647718950493565       -0.2409447843072524
-        4.0595489656119685       -0.5317255256478363        1.6529322830882118       -0.8198896509317037
+        4.2878217083829080       -0.4468616879689735        1.8363125788778163        0.6937115489942585
+        4.3169796826408682       -0.5588589359574443       -1.8997950547334164        0.3444654019722542
-        3.8385087763102570       -0.7727347617967498       -1.5076047065378648       -0.4979485037583461
+        3.1935307901343490       -3.7975223718466093       -0.1433658548236760        0.0350392802765233
