29
s                      x[A]                      y[A]                      z[A]                      q[e]
O        1.7653850440485801        0.9498160166569698        0.8038224616593955       -0.9931001014197157
N        1.8021378618278834        0.8653603113869510        0.7760189762872867        0.5488150143279843
O        1.6158276714217912        0.6208979329267734        0.9553473265700574       -0.1384884129548948
N        1.7414800216754256        1.0420756241462004        0.8917421462163385        0.5747768757293102
N        3.2668999187708376       -0.6166747423166821        0.0902440574668399        0.0661706684971515
O        1.5544616647739855       -0.3140545252889589        0.2805031458184932       -0.8180410630017889
N        1.7518721377009641       -0.4934466986609813        0.0231680754021804        0.4315069994011011
N        1.5118172898734963        0.0338353611569693        0.2863755161485275        0.9946358428049377
O        1.5651621011191095       -0.0289286534425836       -0.0347828044543090       -0.6622924080594511
N        1.3745063455266502       -0.7523111668483297       -0.3230595401277834        0.3660430662426980
N        0.6336105999193301       -0.9491708930486862       -0.1723779027936724        0.9533721636853427
N        0.8710981256519197       -0.0412811818834082       -0.0871263391144608        0.5448694073005239
O        1.0869223313631720       -0.3113626526929907       -0.1817016172876239       -0.9896408103550303
O        0.7340298759916456       -0.9681541968392163       -0.1490736781663815       -0.9258071714801309
N        1.0144947367051591       -1.8038796153417282       -1.0064473556334539        0.0646609255282502
N       -0.5141856057689058        0.8268981357001374       -0.1144070438235829        0.4346289541003778
N       -0.6611567428266922        1.7786922771084932       -0.1209948095356563        0.2870273834255657
O       -0.6255934828996239        1.3624356778532591       -0.1181586511209946       -0.9950068641205374
O       -0.9204446225377342       -0.2940952946498088       -0.2983556760359157       -0.5799196894984102
O       -0.7526993472485629       -0.3958498962355634        0.1973745663985124       -0.8890618036974257
N       -0.7927861233850481        0.2083531934103819       -0.0930090659758054        0.8381051257426204
N       -0.6214534616314241       -0.4848345854513637        0.0287535240967493        0.9967736433183328
N       -2.9003674721367929       -0.2065984657657463        0.5318427529375205        0.0755129882563218
O       -2.5258849058122705       -0.5921180908856221        0.2353371863220328       -0.0036841185473820
O       -1.5482415979783628       -0.3925810317975687       -0.0571606282456204       -0.6814988747632051
O       -1.3780903594729592       -0.4035428689163757        0.3253072717829736       -0.6131726470216623
N       -1.6010840872807937       -0.2972159747568084        0.1291647071785558        0.9800808381504910
N       -1.5316140688046995       -1.9633042709275914        0.0777943098669817        0.2961853440937458
O       -1.5685489249405824       -1.9688896526305835       -0.0771033953696955       -0.1634512756851209

        RMSE         4.794953879E-01 kcal/mol
         MAE         2.845159424E-01 kcal/mol
     max. AE         4.381238609E+00 kcal/mol

Coordinates in bohr
s                   x[bohr]                   y[bohr]                   z[bohr]                      q[e]
-        3.3360942392311204        1.7948921410549634        1.5190043060275831       -0.9931001014197157
+        3.4055469991728611        1.6352939883622426        1.4664633333411246        0.5488150143279843
-        3.0534717649234460        1.1733270450944859        1.8053448019057290       -0.1384884129548948
+        3.2909202939229165        1.9692375316518473        1.6851484308768494        0.5747768757293102
+        6.1735461257573085       -1.1653463714658081        0.1705365530624049        0.0661706684971515
-        2.9375068189460691       -0.5934770412568019        0.5300741229263133       -0.8180410630017889
+        3.3105585470751655       -0.9324791179805727        0.0437813173640772        0.4315069994011011
+        2.8569206295927962        0.0639395659426259        0.5411712945573426        0.9946358428049377
-        2.9577277130612480       -0.0546672321847658       -0.0657299742939986       -0.6622924080594511
+        2.5974405507492753       -1.4216620664669517       -0.6104940530578640        0.3660430662426980
+        1.1973505040345658       -1.7936730341182403       -0.3257470263608327        0.9533721636853427
+        1.6461368858817786       -0.0780101278948529       -0.1646449192400949        0.5448694073005239
-        2.0539855259205164       -0.5883901392857968       -0.3433662932263626       -0.9896408103550303
-        1.3871154335279825       -1.8295462792387078       -0.2817084242491033       -0.9258071714801309
+        1.9171172080912000       -3.4088384362920814       -1.9019098618384838        0.0646609255282502
+       -0.9716699725558606        1.5626110101249220       -0.2161979796498233        0.4346289541003778
+       -1.2494051699422029        3.3612412652019943       -0.2286470526243237        0.2870273834255657
-       -1.1822003485515744        2.5746302946951491       -0.2232874899722003       -0.9950068641205374
-       -1.7393882502467255       -0.5557595616739615       -0.5638105156837020       -0.5799196894984102
-       -1.4223956211106632       -0.7480478906761147        0.3729838746241797       -0.8890618036974257
+       -1.4981486492611586        0.3937304729101664       -0.1757616618789103        0.8381051257426204
+       -1.1743768422011063       -0.9162045826529578        0.0543362856846084        0.9967736433183328
+       -5.4809001855249768       -0.3904145182370354        1.0050371448614455        0.0755129882563218
-       -4.7732306964130329       -1.1189410257027728        0.4447228292844820       -0.0036841185473820
-       -2.9257525962202879       -0.7418706321470560       -0.1080179325433316       -0.6814988747632051
-       -2.6042133555376208       -0.7625855021334789        0.6147416502896953       -0.6131726470216623
+       -3.0256104287893173       -0.5616567924013552        0.2440859216424271        0.9800808381504910
+       -2.8943311199390043       -3.7101073729948033        0.1470099397675971        0.2961853440937458
-       -2.9641278825190085       -3.7206622147196016       -0.1457043005916177       -0.1634512756851209
