13
s                      x[A]                      y[A]                      z[A]                      q[e]
O        1.4903723271491407        0.1053981078821592       -0.1980930781371647       -0.2950613466246002 
N        1.6257472574297644        0.2829640952689359       -1.3466181132215103        0.1771573229334194 
N        2.9162336799141868        0.0262559840141880        0.1614495140618847        0.1448139550195049 
O        0.9223963502394703        0.0536050799843615        0.2373478782554994       -0.9999999966713399 
N        0.5194378484071362        0.0412694949794732        0.1849318059605797        0.8645956553586256 
N        1.3590063558421512       -0.2058574375810122        1.5136662641622061        0.1429543728375699 
O       -0.9901165491323387       -0.9737093903026108       -0.0903025588650848       -0.6595585821218624 
N       -0.0451488147885981        0.2338819765566283        0.1708951616083544        0.7562398187257442 
N       -0.8999957252488898       -0.3354055405501779       -0.0292869081391144        0.9999999998067998 
O       -0.5382066166824238        0.2766272416649185        0.0712866541874697       -0.9999999980159755 
N       -2.2349906926119116        0.9258787229726426       -0.3190598893277368        0.2387512206146075 
O       -1.1957391271402131        0.9987647270209020       -0.0347480415990769       -0.6493069043085019 
N       -0.8867481263734702        1.9197648202778106        0.1311710306167081        0.2794144824460085 

        RMSE         2.916999820e-01 kcal/mol
         MAE         1.881481017e-01 kcal/mol
     max. AE         2.634921921e+00 kcal/mol

Coordinates in bohr
s                   x[bohr]                   y[bohr]                   z[bohr]                      q[e]
-        2.8163953193039926        0.1991735436141827       -0.3743416379175706       -0.2950613466246002 
+        3.0722168432602004        0.5347246046703945       -2.5447392452741853        0.1771573229334194 
+        5.5108825737644525        0.0496166153478772        0.3050953425695846        0.1448139550195049 
-        1.7430763548373149        0.1012989127674296        0.4485224538784860       -0.9999999966713399 
+        0.9815952015974324        0.0779880371991077        0.3494704398424399        0.8645956553586256 
+        2.5681496293074928       -0.3890141497434411        2.8604144774543934        0.1429543728375699 
-       -1.8710489746383292       -1.8400439401987045       -0.1706470923244321       -0.6595585821218624 
+       -0.0853188886605018        0.4419728493641964        0.3229450282173043        0.7562398187257442 
+       -1.7007453116317324       -0.6338245666981023       -0.0553442314362253        0.9999999998067998 
-       -1.0170630307812545        0.5227496877289292        0.1347122430584025       -0.9999999980159755 
+       -4.2235199961078429        1.7496570850931825       -0.6029357647824640        0.2387512206146075 
-       -2.2596193041427401        1.8873916611483832       -0.0656642772627295       -0.6493069043085019 
+       -1.6757109797503038        3.6278294728789868        0.2478773055078396        0.2794144824460085 

total molecule built from fragment files: /home/boittier/pydcm/models/fbutadiene-9/3-fragfit/frag1/fit1/3charges.xyz /home/boittier/pydcm/models/fbutadiene-9/3-fragfit/frag2/fit1/3charges.xyz /home/boittier/pydcm/models/fbutadiene-9/3-fragfit/frag3/fit1/4charges.xyz /home/boittier/pydcm/models/fbutadiene-9/3-fragfit/frag4/fit2/3charges.xyz 