16
s                      x[A]                      y[A]                      z[A]                      q[e]
O        1.4903723271491407        0.1053981078821592       -0.1980930781371647       -0.2950613466246002 
N        1.6257472574297644        0.2829640952689359       -1.3466181132215103        0.1771573229334194 
N        2.9162336799141868        0.0262559840141880        0.1614495140618847        0.1448139550195049 
O        1.2056663066798632        0.0310684793182382        0.3713962291423948       -0.9999999993021376 
N        1.4565537452126831       -0.0311071878008780        0.6745402919661706        0.4313662689366540 
N        0.4372278227457629        0.0275513553333112        0.2029132706314019        0.5154773525370183 
N        1.2119907207324367       -0.2896782372323890        1.9247641803970115        0.0607064093533209 
N       -0.8464838393952032       -0.7721630187595117        0.0206218521998913        0.2936754436771329 
N       -1.2582629854142784       -1.6249029078023070       -0.1612220658968937        0.3278818462604574 
O       -1.1073038012271867       -1.2819212608330994       -0.1152492254612917       -0.9999982117881352 
N        0.0237212009013829        0.2356836289940202        0.1760094253192400        0.5710251738470030 
N       -0.9321594526992801       -0.2918270514959295       -0.0498117288364482        0.8928371417674072 
O       -0.6357105013273153        0.1918957800445573        0.0367326105134232       -0.9887401553691593 
N       -2.2349906926119116        0.9258787229726426       -0.3190598893277368        0.2387512206146075 
O       -1.1957391271402131        0.9987647270209020       -0.0347480415990769       -0.6493069043085019 
N       -0.8867481263734702        1.9197648202778106        0.1311710306167081        0.2794144824460085 

        RMSE         2.136190897e-01 kcal/mol
         MAE         1.375637483e-01 kcal/mol
     max. AE         2.279723778e+00 kcal/mol

Coordinates in bohr
s                   x[bohr]                   y[bohr]                   z[bohr]                      q[e]
-        2.8163953193039926        0.1991735436141827       -0.3743416379175706       -0.2950613466246002 
+        3.0722168432602004        0.5347246046703945       -2.5447392452741853        0.1771573229334194 
+        5.5108825737644525        0.0496166153478772        0.3050953425695846        0.1448139550195049 
-        2.2783789533123153        0.0587109127939563        0.7018371062784241       -0.9999999993021376 
+        2.7524874661210701       -0.0587840612195800        1.2746963200863044        0.4313662689366540 
+        0.8262407795816623        0.0520645121945114        0.3834504809439853        0.5154773525370183 
+        2.2903303629101304       -0.5474124932298816        3.6372768936226110        0.0607064093533209 
+       -1.5996225102350239       -1.4591765239856784        0.0389696500352027        0.2936754436771329 
+       -2.3777722640307846       -3.0706212538257289       -0.3046655278611418        0.3278818462604574 
-       -2.0925007704545835       -2.4224799219351874       -0.2177894565202237       -0.9999982117881352 
+        0.0448265698241450        0.4453774787975605        0.3326095852643187        0.5710251738470030 
+       -1.7615259432849821       -0.5514731633883685       -0.0941305185193322        0.8928371417674072 
-       -1.2013186555841626        0.3626304426528691        0.0694145687163374       -0.9887401553691593 
+       -4.2235199961078429        1.7496570850931825       -0.6029357647824640        0.2387512206146075 
-       -2.2596193041427401        1.8873916611483832       -0.0656642772627295       -0.6493069043085019 
+       -1.6757109797503038        3.6278294728789868        0.2478773055078396        0.2794144824460085 

total molecule built from fragment files: /home/boittier/pydcm/models/fbutadiene-9/3-fragfit/frag1/fit1/3charges.xyz /home/boittier/pydcm/models/fbutadiene-9/3-fragfit/frag2/fit1/4charges.xyz /home/boittier/pydcm/models/fbutadiene-9/3-fragfit/frag3/fit2/6charges.xyz /home/boittier/pydcm/models/fbutadiene-9/3-fragfit/frag4/fit2/3charges.xyz 