17
s                      x[A]                      y[A]                      z[A]                      q[e]
O        1.4903723271491407        0.1053981078821592       -0.1980930781371647       -0.2950613466246002 
N        1.6257472574297644        0.2829640952689359       -1.3466181132215103        0.1771573229334194 
N        2.9162336799141868        0.0262559840141880        0.1614495140618847        0.1448139550195049 
O        1.2056663066798632        0.0310684793182382        0.3713962291423948       -0.9999999993021376 
N        1.4565537452126831       -0.0311071878008780        0.6745402919661706        0.4313662689366540 
N        0.4372278227457629        0.0275513553333112        0.2029132706314019        0.5154773525370183 
N        1.2119907207324367       -0.2896782372323890        1.9247641803970115        0.0607064093533209 
N       -0.8912032849407603       -0.7406667783110468       -0.0228361443912641        0.2807501806598879 
N       -1.2411862303809702       -1.6335862278397151       -0.1720578152944197        0.2436572221132673 
O       -1.0612418145268141       -1.1980075406580271       -0.1137024184519571       -0.9999900854616043 
N       -0.8766930418425127       -0.2524101902662352       -0.0284734011322537        0.9979234891710389 
N       -0.2137048212040975        0.2691485507979350        0.1513961773377394        0.9947484020300419 
O       -0.6095026968259443        0.2712385366712055        0.2266250077948856       -0.9999472925533490 
O       -0.5273672435845090        0.3081128440251845       -0.3006932823887452       -0.4204606775645767 
N       -2.2349906926119116        0.9258787229726426       -0.3190598893277368        0.2387512206146075 
O       -1.1957391271402131        0.9987647270209020       -0.0347480415990769       -0.6493069043085019 
N       -0.8867481263734702        1.9197648202778106        0.1311710306167081        0.2794144824460085 

        RMSE         1.952002179e-01 kcal/mol
         MAE         1.248539357e-01 kcal/mol
     max. AE         2.279723778e+00 kcal/mol

Coordinates in bohr
s                   x[bohr]                   y[bohr]                   z[bohr]                      q[e]
-        2.8163953193039926        0.1991735436141827       -0.3743416379175706       -0.2950613466246002 
+        3.0722168432602004        0.5347246046703945       -2.5447392452741853        0.1771573229334194 
+        5.5108825737644525        0.0496166153478772        0.3050953425695846        0.1448139550195049 
-        2.2783789533123153        0.0587109127939563        0.7018371062784241       -0.9999999993021376 
+        2.7524874661210701       -0.0587840612195800        1.2746963200863044        0.4313662689366540 
+        0.8262407795816623        0.0520645121945114        0.3834504809439853        0.5154773525370183 
+        2.2903303629101304       -0.5474124932298816        3.6372768936226110        0.0607064093533209 
+       -1.6841300086782456       -1.3996572598670198       -0.0431540555355939        0.2807501806598879 
+       -2.3455018762433864       -3.0870303493677502       -0.3251421251036035        0.2436572221132673 
-       -2.0054562371003417       -2.2639059841202447       -0.2148664151153355       -0.9999900854616043 
+       -1.6567096251945834       -0.4769860963335754       -0.0538069261034525        0.9979234891710389 
+       -0.4038435545184994        0.5086170112368850        0.2860972908898205        0.9947484020300419 
-       -1.1517930863137735        0.5125665118574112        0.4282591668966729       -0.9999472925533490 
-       -0.9965795857379933        0.5822488487758494       -0.5682279103274505       -0.4204606775645767 
+       -4.2235199961078429        1.7496570850931825       -0.6029357647824640        0.2387512206146075 
-       -2.2596193041427401        1.8873916611483832       -0.0656642772627295       -0.6493069043085019 
+       -1.6757109797503038        3.6278294728789868        0.2478773055078396        0.2794144824460085 

total molecule built from fragment files: /home/boittier/pydcm/models/fbutadiene-9/3-fragfit/frag1/fit1/3charges.xyz /home/boittier/pydcm/models/fbutadiene-9/3-fragfit/frag2/fit1/4charges.xyz /home/boittier/pydcm/models/fbutadiene-9/3-fragfit/frag3/fit1/7charges.xyz /home/boittier/pydcm/models/fbutadiene-9/3-fragfit/frag4/fit2/3charges.xyz 