27
s                      x[A]                      y[A]                      z[A]                      q[e]
N        1.6715551874035777        0.2925777875902460       -1.5938658238831924        0.1087332123124928 
O        1.8144852408144487       -0.1023833037795983       -1.4194165066879068       -0.0325214912021147 
N        1.7947152089661460        0.0378663482561264       -0.6896402302825578        0.1649445933514553 
O        1.7445241250948804        0.0242119737800131        0.0691580889183509       -0.9094553969157368 
N        1.9458128731443192        0.0020184332974818        0.2181318261532773        0.6339886374841244 
N        3.3592839250138762        0.0509566927996365        0.1070488121115899        0.0612203762981033 
O        1.3740827305281749        0.3107857310980168        0.3537272309598762       -0.5018304286308153 
O        1.1962666727847606       -0.1678577360820473        0.2584225483020067       -0.6399733443870318 
N        0.6510989925448351       -0.0062883765548872        0.3865063282202438        0.9892612542799517 
N        1.3379898140222193        0.0385470003097874        0.6372198899153214        0.9987513806141044 
N        1.1043212736837738       -0.2497141727543056        1.9061094763235471        0.0849586752592096 
O        0.9709522140530114        0.0118482094072566        0.7523992543692807       -0.9236175056105630 
N       -0.8912032849407603       -0.7406667783110468       -0.0228361443912641        0.2807501806598879 
N       -1.2411862303809702       -1.6335862278397151       -0.1720578152944197        0.2436572221132673 
O       -1.0612418145268141       -1.1980075406580271       -0.1137024184519571       -0.9999900854616043 
N       -0.8766930418425127       -0.2524101902662352       -0.0284734011322537        0.9979234891710389 
N       -0.2137048212040975        0.2691485507979350        0.1513961773377394        0.9947484020300419 
O       -0.6095026968259443        0.2712385366712055        0.2266250077948856       -0.9999472925533490 
O       -0.5273672435845090        0.3081128440251845       -0.3006932823887452       -0.4204606775645767 
N       -2.6993264896950575        0.9375603046104529       -0.2411964861842795        0.6939262280490432 
O       -2.7053929876607259        0.9331616433266309       -0.2154494243024954       -0.6111140871284240 
O       -0.9955836266725817        0.7416018476813538       -0.3341154126899826       -0.3435622600075615 
O       -1.2437537511563972        0.6108473501508550        0.2336948108732318       -0.6531382752903794 
N       -1.3108689896234385        0.6020724297186993        0.0467977703474529        0.6375908445527725 
O       -0.8118878851646242        2.1000616140213602        0.3740785657600808       -0.9949587900432196 
N       -0.8375525510442253        2.1953602654715407        0.3340913793263965        0.7136003537107451 
N       -0.7384256773997779        1.9257176913167759        0.3761163492611742        0.4265147849091377 

        RMSE         8.399679889e-02 kcal/mol
         MAE         5.072784690e-02 kcal/mol
     max. AE         1.281332775e+00 kcal/mol

Coordinates in bohr
s                   x[bohr]                   y[bohr]                   z[bohr]                      q[e]
+        3.1587812790156842        0.5528918488963784       -3.0119696697334191        0.1087332123124928 
-        3.4288799154981930       -0.1934763899510355       -2.6823082613359630       -0.0325214912021147 
+        3.3915199725190059        0.0715570223929803       -1.3032310659490383        0.1649445933514553 
-        3.2966725769314729        0.0457539960873925        0.1306898379509173       -0.9094553969157368 
+        3.6770531553332551        0.0038142858585070        0.4122093808226253        0.6339886374841244 
+        6.3481261361849350        0.0962941866765796        0.2022929222960299        0.0612203762981033 
-        2.5966398463655427        0.5872998729419736        0.6684475412203925       -0.5018304286308153 
-        2.2606162208574143       -0.3172051262618047        0.4883478055665409       -0.6399733443870318 
+        1.2303986873632524       -0.0118833086018733        0.7303910531961563        0.9892612542799517 
+        2.5284341240398684        0.0728432682679775        1.2041709864258139        0.9987513806141044 
+        2.0868646106440805       -0.4718913619755613        3.6020246145253432        0.0849586752592096 
-        1.8348336325846857        0.0223898692352678        1.4218284247848918       -0.9236175056105630 
+       -1.6841300086782456       -1.3996572598670198       -0.0431540555355939        0.2807501806598879 
+       -2.3455018762433864       -3.0870303493677502       -0.3251421251036035        0.2436572221132673 
-       -2.0054562371003417       -2.2639059841202447       -0.2148664151153355       -0.9999900854616043 
+       -1.6567096251945834       -0.4769860963335754       -0.0538069261034525        0.9979234891710389 
+       -0.4038435545184994        0.5086170112368850        0.2860972908898205        0.9947484020300419 
-       -1.1517930863137735        0.5125665118574112        0.4282591668966729       -0.9999472925533490 
-       -0.9965795857379933        0.5822488487758494       -0.5682279103274505       -0.4204606775645767 
+       -5.1009874192931601        1.7717320735021052       -0.4557952683014338        0.6939262280490432 
-       -5.1124514381586730        1.7634198089590181       -0.4071403763333339       -0.6111140871284240 
-       -1.8813802531478179        1.4014242847572329       -0.6313865785520744       -0.3435622600075615 
-       -2.3503537869789812        1.1543341126475148        0.4416191575081080       -0.6531382752903794 
+       -2.4771831973412355        1.1377519174589732        0.0884349628341162        0.6375908445527725 
-       -1.5342456364250827        3.9685410096774265        0.7069059874950387       -0.9949587900432196 
+       -1.5827448225265006        4.1486293480013661        0.6313411620803122        0.7136003537107451 
+       -1.3954221932319200        3.6390787679881038        0.7107568399361953        0.4265147849091377 

total molecule built from fragment files: /home/boittier/pydcm/models/fbutadiene-9/3-fragfit/frag1/fit1/6charges.xyz /home/boittier/pydcm/models/fbutadiene-9/3-fragfit/frag2/fit2/6charges.xyz /home/boittier/pydcm/models/fbutadiene-9/3-fragfit/frag3/fit1/7charges.xyz /home/boittier/pydcm/models/fbutadiene-9/3-fragfit/frag4/fit1/8charges.xyz 