30
s                      x[A]                      y[A]                      z[A]                      q[e]
N        1.6715551874035777        0.2925777875902460       -1.5938658238831924        0.1087332123124928 
O        1.8144852408144487       -0.1023833037795983       -1.4194165066879068       -0.0325214912021147 
N        1.7947152089661460        0.0378663482561264       -0.6896402302825578        0.1649445933514553 
O        1.7445241250948804        0.0242119737800131        0.0691580889183509       -0.9094553969157368 
N        1.9458128731443192        0.0020184332974818        0.2181318261532773        0.6339886374841244 
N        3.3592839250138762        0.0509566927996365        0.1070488121115899        0.0612203762981033 
O        1.3740827305281749        0.3107857310980168        0.3537272309598762       -0.5018304286308153 
O        1.1962666727847606       -0.1678577360820473        0.2584225483020067       -0.6399733443870318 
N        0.6510989925448351       -0.0062883765548872        0.3865063282202438        0.9892612542799517 
N        1.3379898140222193        0.0385470003097874        0.6372198899153214        0.9987513806141044 
N        1.1043212736837738       -0.2497141727543056        1.9061094763235471        0.0849586752592096 
O        0.9709522140530114        0.0118482094072566        0.7523992543692807       -0.9236175056105630 
O       -1.1086005034047834       -1.1914429218573399       -0.1258462603577392       -0.7552490586606171 
N       -0.5225703024216868       -1.1435085492713721       -0.0723052671404360        0.9422551319908152 
O       -0.5630828523276933       -1.1872981871955217       -0.0770153622343357       -0.9999868530027459 
N       -1.2227093949983099       -1.6227752433287215       -0.1791655041301607        0.2314013047082152 
N       -0.9195883877833385       -0.2876152493939561       -0.0239929660026738        0.9993735531079845 
N       -0.2222747209697699        0.2899979201433302        0.1000942240771359        0.9976625483294896 
O       -0.6907397648587212        0.3166895154195811        0.2947737423485189       -0.6297123023863820 
O       -0.4828113397559201        0.3333373354480098       -0.1947377028001933       -0.6890630856920537 
N       -2.2469854597900780        0.6595576085014928       -0.2516979268762898        0.7679915332739180 
N       -2.6151190441948060        0.9610257450482959       -0.3537357173919843        0.1275450547282642 
O       -2.2314085508822221        0.6894716296220376       -0.2315740547529502       -0.8898867727773122 
O       -0.9286568106774163        0.8375956439008516       -0.3011351378452565       -0.3488221873155646 
O       -1.3062255592236391        0.6509753692508372        0.2879229283844971       -0.5928151542733271 
N       -1.4757624424590425        0.6405027502637377        0.1125981755182622        0.5508033375176656 
O       -0.8324191080120996        1.8378825961872107       -0.0748163186969983       -0.4422382254427985 
N       -0.8744072577068189        1.6999698142478823        0.0420802061317451        0.7847739809885179 
O       -0.9033425437316831        2.0178151176535017        0.2567478931656163       -0.5912599427250026 
N       -0.8626372240920973        2.1700632288570070        0.2087305769957955        0.5027671747777535 

        RMSE         7.378701560e-02 kcal/mol
         MAE         4.427486258e-02 kcal/mol
     max. AE         1.281332775e+00 kcal/mol

Coordinates in bohr
s                   x[bohr]                   y[bohr]                   z[bohr]                      q[e]
+        3.1587812790156842        0.5528918488963784       -3.0119696697334191        0.1087332123124928 
-        3.4288799154981930       -0.1934763899510355       -2.6823082613359630       -0.0325214912021147 
+        3.3915199725190059        0.0715570223929803       -1.3032310659490383        0.1649445933514553 
-        3.2966725769314729        0.0457539960873925        0.1306898379509173       -0.9094553969157368 
+        3.6770531553332551        0.0038142858585070        0.4122093808226253        0.6339886374841244 
+        6.3481261361849350        0.0962941866765796        0.2022929222960299        0.0612203762981033 
-        2.5966398463655427        0.5872998729419736        0.6684475412203925       -0.5018304286308153 
-        2.2606162208574143       -0.3172051262618047        0.4883478055665409       -0.6399733443870318 
+        1.2303986873632524       -0.0118833086018733        0.7303910531961563        0.9892612542799517 
+        2.5284341240398684        0.0728432682679775        1.2041709864258139        0.9987513806141044 
+        2.0868646106440805       -0.4718913619755613        3.6020246145253432        0.0849586752592096 
-        1.8348336325846857        0.0223898692352678        1.4218284247848918       -0.9236175056105630 
-       -2.0949511822590621       -2.2515006533673341       -0.2378149487661417       -0.7552490586606171 
+       -0.9875146813568230       -2.1609178237443953       -0.1366371424279475        0.9422551319908152 
-       -1.0640722997786580       -2.2436682405610453       -0.1455379315356671       -0.9999868530027459 
+       -2.3105857202336888       -3.0666005509749739       -0.3385737094153853        0.2314013047082152 
+       -1.7377700752089495       -0.5435140114974293       -0.0453401313988489        0.9993735531079845 
+       -0.4200383168253876        0.5480166063347985        0.1891506565473156        0.9976625483294896 
-       -1.3053088850129786        0.5984564076055229        0.5570416016728765       -0.6297123023863820 
-       -0.9123811363275466        0.6299162257667802       -0.3680008979417883       -0.6890630856920537 
+       -4.2461868193716308        1.2463831537641352       -0.4756401136948672        0.7679915332739180 
+       -4.9418584210977166        1.8160753261314424       -0.6684635782516977        0.1275450547282642 
-       -4.2167507297864004        1.3029124568991579       -0.4376115095521294       -0.8898867727773122 
-       -1.7549069096275036        1.5828262562175903       -0.5690628960668246       -0.3488221873155646 
-       -2.4684083862384791        1.2301650732117884        0.5440954404820009       -0.5928151542733271 
+       -2.7887866405146648        1.2103746929431607        0.2127796985458044        0.5508033375176656 
-       -1.5730440218176951        3.4730945060106113       -0.1413823418130978       -0.4422382254427985 
+       -1.6523901195090334        3.2124771378197376        0.0795200591328038        0.7847739809885179 
-       -1.7070698814977936        3.8131176680197889        0.4851831662333614       -0.5912599427250026 
+       -1.6301479811005983        4.1008248804763152        0.3944435959644281        0.5027671747777535 

total molecule built from fragment files: /home/boittier/pydcm/models/fbutadiene-9/3-fragfit/frag1/fit1/6charges.xyz /home/boittier/pydcm/models/fbutadiene-9/3-fragfit/frag2/fit2/6charges.xyz /home/boittier/pydcm/models/fbutadiene-9/3-fragfit/frag3/fit2/8charges.xyz /home/boittier/pydcm/models/fbutadiene-9/3-fragfit/frag4/fit1/10charges.xyz 