34
s                      x[A]                      y[A]                      z[A]                      q[e]
N        2.4605052370038458        0.0771958602877293       -0.5712140472192303        0.0179330501809276 
N        1.6904690278734555        0.2996672662596547       -1.6710418550108577        0.0813539947815707 
N        1.9323825688999050        0.0951191825838825        0.2301027354522967        0.3467890300117555 
N        1.5189832217740575        0.2761772704706838       -0.6729822060479882        0.1259274282255871 
N        2.2499940507631191       -0.0246600580508637        0.1178560422878546        0.0316370739950157 
O        1.6294454870159365        0.0373768904020893        0.0118630222490052       -0.4897653831154161 
O        1.6544259776443910        0.3565128922346865        0.0882643096504217       -0.1451521793126922 
N        3.3536203645184197        0.0017812359880326        0.1189776018244360        0.0581869165615759 
O        1.0447846338470104       -0.2208361039132197        0.2031959920374125       -0.5398712626078922 
O        1.2986014374928310        0.1979343737856216        0.4189675479816988       -0.9963953063800429 
N        0.6927339820179380       -0.0250750861982297        0.3125823113558086        0.9851684155060375 
N        1.4119109527749782        0.0775588272979152        0.6674906393507944        0.7740775017135415 
O        0.8911319487789700       -0.0969338585437442        1.2226924718329386       -0.9960690258593610 
N        0.8434628085805704       -0.1323534908877928        1.2768644985256667        0.9830556561991194 
O        0.9323027270306115       -0.1866956547010176        1.4361202231512920       -0.8765281192115919 
N        1.0097374528418743       -0.2015516411971370        1.5824399798931548        0.6741121721650453 
O       -1.1086005034047834       -1.1914429218573399       -0.1258462603577392       -0.7552490586606171 
N       -0.5225703024216868       -1.1435085492713721       -0.0723052671404360        0.9422551319908152 
O       -0.5630828523276933       -1.1872981871955217       -0.0770153622343357       -0.9999868530027459 
N       -1.2227093949983099       -1.6227752433287215       -0.1791655041301607        0.2314013047082152 
N       -0.9195883877833385       -0.2876152493939561       -0.0239929660026738        0.9993735531079845 
N       -0.2222747209697699        0.2899979201433302        0.1000942240771359        0.9976625483294896 
O       -0.6907397648587212        0.3166895154195811        0.2947737423485189       -0.6297123023863820 
O       -0.4828113397559201        0.3333373354480098       -0.1947377028001933       -0.6890630856920537 
N       -2.2469854597900780        0.6595576085014928       -0.2516979268762898        0.7679915332739180 
N       -2.6151190441948060        0.9610257450482959       -0.3537357173919843        0.1275450547282642 
O       -2.2314085508822221        0.6894716296220376       -0.2315740547529502       -0.8898867727773122 
O       -0.9286568106774163        0.8375956439008516       -0.3011351378452565       -0.3488221873155646 
O       -1.3062255592236391        0.6509753692508372        0.2879229283844971       -0.5928151542733271 
N       -1.4757624424590425        0.6405027502637377        0.1125981755182622        0.5508033375176656 
O       -0.8324191080120996        1.8378825961872107       -0.0748163186969983       -0.4422382254427985 
N       -0.8744072577068189        1.6999698142478823        0.0420802061317451        0.7847739809885179 
O       -0.9033425437316831        2.0178151176535017        0.2567478931656163       -0.5912599427250026 
N       -0.8626372240920973        2.1700632288570070        0.2087305769957955        0.5027671747777535 

        RMSE         7.397290043e-02 kcal/mol
         MAE         4.495580855e-02 kcal/mol
     max. AE         1.199636796e+00 kcal/mol

Coordinates in bohr
s                   x[bohr]                   y[bohr]                   z[bohr]                      q[e]
+        4.6496806914525699        0.1458790233980567       -1.0794380300835671        0.0179330501809276 
+        3.1945232548958469        0.5662890209835854       -3.1578112214523708        0.0813539947815707 
+        3.6516735603677803        0.1797491913431512        0.4348311192321557        0.3467890300117555 
+        2.8704620704337938        0.5218993654690626       -1.2717519646342434        0.1259274282255871 
+        4.2518722319224533       -0.0466007525791018        0.2227156260248994        0.0316370739950157 
-        3.0792054838209988        0.0706320811658821        0.0224178614472851       -0.4897653831154161 
-        3.1264117661695683        0.6737116777268383        0.1667953598122397       -0.1451521793126922 
+        6.3374235587286627        0.0033660479384148        0.2248350662289395        0.0581869165615759 
-        1.9743566750706307       -0.4173197247859814        0.3839847469324571       -0.5398712626078922 
-        2.4540008852635209        0.3740417301799557        0.7917338638010336       -0.9963953063800429 
+        1.3090774090056625       -0.0473850420551798        0.5906949173457284        0.9851684155060375 
+        2.6681248210478636        0.1465649315902095        1.2613744083284262        0.7740775017135415 
-        1.6839952028793834       -0.1831784316653896        2.3105537400882774       -0.9960690258593610 
+        1.5939135897922510       -0.2501118314125954        2.4129240267846588        0.9830556561991194 
-        1.7617966925123982       -0.3528036306472047        2.7138737084430278       -0.8765281192115919 
+        1.9081271062980567       -0.3808773744152122        2.9903779554037562        0.6741121721650453 
-       -2.0949511822590621       -2.2515006533673341       -0.2378149487661417       -0.7552490586606171 
+       -0.9875146813568230       -2.1609178237443953       -0.1366371424279475        0.9422551319908152 
-       -1.0640722997786580       -2.2436682405610453       -0.1455379315356671       -0.9999868530027459 
+       -2.3105857202336888       -3.0666005509749739       -0.3385737094153853        0.2314013047082152 
+       -1.7377700752089495       -0.5435140114974293       -0.0453401313988489        0.9993735531079845 
+       -0.4200383168253876        0.5480166063347985        0.1891506565473156        0.9976625483294896 
-       -1.3053088850129786        0.5984564076055229        0.5570416016728765       -0.6297123023863820 
-       -0.9123811363275466        0.6299162257667802       -0.3680008979417883       -0.6890630856920537 
+       -4.2461868193716308        1.2463831537641352       -0.4756401136948672        0.7679915332739180 
+       -4.9418584210977166        1.8160753261314424       -0.6684635782516977        0.1275450547282642 
-       -4.2167507297864004        1.3029124568991579       -0.4376115095521294       -0.8898867727773122 
-       -1.7549069096275036        1.5828262562175903       -0.5690628960668246       -0.3488221873155646 
-       -2.4684083862384791        1.2301650732117884        0.5440954404820009       -0.5928151542733271 
+       -2.7887866405146648        1.2103746929431607        0.2127796985458044        0.5508033375176656 
-       -1.5730440218176951        3.4730945060106113       -0.1413823418130978       -0.4422382254427985 
+       -1.6523901195090334        3.2124771378197376        0.0795200591328038        0.7847739809885179 
-       -1.7070698814977936        3.8131176680197889        0.4851831662333614       -0.5912599427250026 
+       -1.6301479811005983        4.1008248804763152        0.3944435959644281        0.5027671747777535 

total molecule built from fragment files: /home/boittier/pydcm/models/fbutadiene-9/3-fragfit/frag1/fit1/8charges.xyz /home/boittier/pydcm/models/fbutadiene-9/3-fragfit/frag2/fit2/8charges.xyz /home/boittier/pydcm/models/fbutadiene-9/3-fragfit/frag3/fit2/8charges.xyz /home/boittier/pydcm/models/fbutadiene-9/3-fragfit/frag4/fit1/10charges.xyz 