2
s                      x[A]                      y[A]                      z[A]                      q[e]
N       -0.0621202357516140       -0.0621202393093279        0.7271323859684652        0.7855231401842983
O       -0.0077808065861849       -0.0077808095867471        0.9159724378570950       -0.9999999999999633

        RMSE         1.513221837E-01 kcal/mol
         MAE         1.017130770E-01 kcal/mol
     max. AE         1.277418703E+00 kcal/mol

Coordinates in bohr
s                   x[bohr]                   y[bohr]                   z[bohr]                      q[e]
+       -0.1173902324194245       -0.1173902391425293        1.3740810664310938        0.7855231401842983
-       -0.0147035934830479       -0.0147035991532888        1.7309370460178495       -0.9999999999999633
