2
s                      x[A]                      y[A]                      z[A]                      q[e]
N       -0.1048015935209936       -0.1048001550137088       -0.7514138685508568        0.6935143531325854
O       -0.0256638564239186       -0.0256628818316482       -0.8979757054022444       -0.9999999969565880

        RMSE         1.478142279E-01 kcal/mol
         MAE         9.971249186E-02 kcal/mol
     max. AE         1.145040033E+00 kcal/mol

Coordinates in bohr
s                   x[bohr]                   y[bohr]                   z[bohr]                      q[e]
+       -0.1980463092662334       -0.1980435908814358       -1.4199664184318883        0.6935143531325854
-       -0.0484976599642777       -0.0484958182518026       -1.6969281505250433       -0.9999999969565880
