1
s                      x[A]                      y[A]                      z[A]                      q[e]
N        0.1622090975246234        0.1622096225642425       -0.0627460155976274        0.5209625036396677

        RMSE         1.064057089E+00 kcal/mol
         MAE         8.179894381E-01 kcal/mol
     max. AE         4.976012726E+00 kcal/mol

Coordinates in bohr
s                   x[bohr]                   y[bohr]                   z[bohr]                      q[e]
+        0.3065307693792175        0.3065317615603027       -0.1185727849432209        0.5209625036396677
