1
s                      x[A]                      y[A]                      z[A]                      q[e]
O       -1.3606839111999991        0.3646591493723644       -0.6480027522142695       -0.0128275207868926

        RMSE         1.844173154E+00 kcal/mol
         MAE         1.389797225E+00 kcal/mol
     max. AE         7.716824064E+00 kcal/mol

Coordinates in bohr
s                   x[bohr]                   y[bohr]                   z[bohr]                      q[e]
-       -2.5713199354847780        0.6891059214561857       -1.2245477302278807       -0.0128275207868926
