2
s                      x[A]                      y[A]                      z[A]                      q[e]
O        1.9443892071256341        0.0507550210099466        0.0548114258576801       -0.1702302989837307
O        1.0932261565311792        0.2711445426081747        0.2789485753060157       -0.1228219595388413

        RMSE         5.287834156E-01 kcal/mol
         MAE         3.882759348E-01 kcal/mol
     max. AE         3.150968715E+00 kcal/mol

Coordinates in bohr
s                   x[bohr]                   y[bohr]                   z[bohr]                      q[e]
-        3.6743630827635432        0.0959130892006571        0.1035785834168529       -0.1702302989837307
-        2.0658980290308184        0.5123889259419810        0.5271364104150184       -0.1228219595388413
