1
s                      x[A]                      y[A]                      z[A]                      q[e]
O        1.6174922412506421        0.1353683987202010        0.1408580828412293       -0.2930522585225721

        RMSE         9.517478484E-01 kcal/mol
         MAE         7.406499079E-01 kcal/mol
     max. AE         4.279784190E+00 kcal/mol

Coordinates in bohr
s                   x[bohr]                   y[bohr]                   z[bohr]                      q[e]
-        3.0566173460166746        0.2558091996229558        0.2661831991269741       -0.2930522585225721
