1
s                      x[A]                      y[A]                      z[A]                      q[e]
N       -0.2676481671141044        0.0987001484696715        0.1051313060788322        0.2242548462517907

        RMSE         3.071318942E+00 kcal/mol
         MAE         2.569288752E+00 kcal/mol
     max. AE         1.041024667E+01 kcal/mol

Coordinates in bohr
s                   x[bohr]                   y[bohr]                   z[bohr]                      q[e]
+       -0.5057817338264258        0.1865162491497047        0.1986693757006726        0.2242548462517907
