16
s                      x[A]                      y[A]                      z[A]                      q[e]
O        1.5835007600118378        0.1032010732623174       -0.1879053942619693       -0.2922793515329282
N        1.6731650847714985        0.2778673897010042       -1.3200907141730893        0.1757537387759899
N        2.9717234275987776        0.0250347171684819        0.1690144274577468        0.1418138542842772
O        1.2095103808459813        0.0314397322290838        0.3833460646539671       -0.9717265209396057
N        1.4499232716651307       -0.0304358414864960        0.6939656246591870        0.4329721360663782
N        0.4427957259148524        0.0277627744451413        0.1941331791154526        0.4919177686666800
N        1.2306183455599886       -0.2926856048870473        1.9123368593802417        0.0645425091467969
N       -0.8687434466330477       -0.7978643919725865        0.0203098545585350        0.2815746770955346
N       -1.2341050890826797       -1.6086955490364745       -0.1637111660104339        0.3264263491569190
O       -1.0929858390883762       -1.2749059794539483       -0.1128405663648295       -0.9843472963446239
N        0.0221344083304056        0.2435180642687100        0.1744805082219004        0.5403370337019946
N       -0.9426748444275501       -0.2780823943021966       -0.0491741712192723        0.8866365516798970
O       -0.6491686548206993        0.1915302176446715        0.0378423230489008       -0.9530299391744880
N       -2.2753430357000464        0.9686932152465776       -0.3047092546575128        0.2334652821913613
O       -1.2166419447250509        0.9986705500363292       -0.0347702352311331       -0.6415939641670322
N       -0.8916544638831088        1.9433770586552428        0.1217501975562466        0.2675371713928493

        RMSE         5.050731759E-01 kcal/mol
         MAE         2.975045520E-01 kcal/mol
     max. AE         5.513340044E+00 kcal/mol

Coordinates in bohr
s                   x[bohr]                   y[bohr]                   z[bohr]                      q[e]
-        2.9923827558766964        0.1950217643190885       -0.3550897326512969       -0.2922793515329282
+        3.1618237728965624        0.5250932657307590       -2.4946099105471693        0.1757537387759899
+        5.6157433987684948        0.0473087590767278        0.3193909791462010        0.1418138542842772
-        2.2856433656970983        0.0594124833706981        0.7244190734680473       -0.9717265209396057
+        2.7399578863748855       -0.0575154048073248        1.3114049710881268        0.4329721360663782
+        0.8367626515023604        0.0524640401841765        0.3668585403926548        0.4919177686666800
+        2.3255316380724000       -0.5530956341004807        3.6137929238468156        0.0645425091467969
+       -1.6416871874227488       -1.5077451860831219        0.0383800627635123        0.2815746770955346
+       -2.3321206284000002       -3.0399940069219507       -0.3093692674390806        0.3264263491569190
-       -2.0654438948807505       -2.4092231368765273       -0.2132377662710762       -0.9843472963446239
+        0.0418279696935188        0.4601824480694998        0.3297203747700846        0.5403370337019946
+       -1.7813972813266352       -0.5254995655427260       -0.0929257160507953        0.8866365516798970
-       -1.2267509668429903        0.3619396560977596        0.0715116265135227       -0.9530299391744880
+       -4.2997751789409016        1.8305648764052009       -0.5758170391950843        0.2334652821913613
-       -2.2991200682747475        1.8872138291289906       -0.0657062219045864       -0.6415939641670322
+       -1.6849827352810041        3.6724503993562023        0.2300745291016910        0.2675371713928493
