8
s                      x[A]                      y[A]                      z[A]                      q[e]
O       -1.9891244314997827       -0.5448929398573173       -0.0901632703501025       -0.8050556052045970
N       -2.1563148510687764       -0.5161450235620676       -0.0144822798453150        0.7771175585637332
O       -1.9657058498951512       -0.7459171883697380        0.5035218059615314       -0.1206146733957641
N       -1.4011855328472342       -0.2727799801183294       -0.2097340225080871        0.2313845692850405
O        0.5091928568312618       -1.5501545981242457       -0.3728287103476580       -0.8595629883556908
N        0.4741236906434506       -1.4298786105418750       -0.3461465562246122        0.9995771955049002
O        0.3932803131113566       -1.2862381827980034       -0.1742491124154044       -0.9999985515805683
N        0.4868396059823501       -1.5525118795656789       -0.1466891949695318        0.9797589638649258

        RMSE         5.385862307E-02 kcal/mol
         MAE         2.894508216E-02 kcal/mol
     max. AE         9.843198832E-01 kcal/mol

Coordinates in bohr
s                   x[bohr]                   y[bohr]                   z[bohr]                      q[e]
-       -3.7589004049915893       -1.0296984240258937       -0.1703838875373058       -0.8050556052045970
+       -4.0748445087773728       -0.9753727355502854       -0.0273675425798831        0.7771175585637332
-       -3.7146456995121513       -1.4095791982903418        0.9515183114632132       -0.1206146733957641
+       -2.6478569080349663       -0.5154794549314740       -0.3963398617308923        0.2313845692850405
-        0.9622350444505430       -2.9293676425739674       -0.7045441542647187       -0.8595629883556908
+        0.8959639249074138       -2.7020789665743203       -0.6541221905349067        0.9995771955049002
-        0.7431920823147654       -2.4306378975947887       -0.3292831000692277       -0.9999985515805683
+        0.9199935223324421       -2.9338222588989007       -0.2772024040563013        0.9797589638649258
