4
s                      x[A]                      y[A]                      z[A]                      q[e]
N       -1.0195814434441157        0.3088993322047433       -0.0699726961482423        0.5330814526285621
O       -0.6913790435225753        0.6162970933348809       -0.2407189404696954       -0.1725961007284108
N       -0.0799759658191919       -0.0147692751349809       -0.0479628369258044        0.7383589464488836
O       -0.1332164599901573       -0.2368749343585929       -0.2270446111260137       -0.2941784864429726

        RMSE         1.199940322E-01 kcal/mol
         MAE         7.706963366E-02 kcal/mol
     max. AE         1.169654730E+00 kcal/mol

Coordinates in bohr
s                   x[bohr]                   y[bohr]                   z[bohr]                      q[e]
+       -1.9267296907083487        0.5837351382037801       -0.1322292319800559        0.5330814526285621
-       -1.3065170411386553        1.1646327183186460       -0.4548928706981111       -0.1725961007284108
+       -0.1511326720172493       -0.0279098850766480       -0.0906366259897660        0.7383589464488836
-       -0.2517426247844078       -0.4476287519235411       -0.4290521332892411       -0.2941784864429726
