2
s                      x[A]                      y[A]                      z[A]                      q[e]
O       -0.7965923463572208        1.3979494284161671        0.0382505747665746       -0.3868387116934195
O        0.0531709038099668        1.4561478553468894       -0.0031383413918318       -0.2622801402645007

        RMSE         6.687556578E-01 kcal/mol
         MAE         5.123084074E-01 kcal/mol
     max. AE         3.165753245E+00 kcal/mol

Coordinates in bohr
s                   x[bohr]                   y[bohr]                   z[bohr]                      q[e]
-       -1.5053413682509911        2.6417415569468687        0.0722831104501740       -0.3868387116934195
-        0.1004784460438995        2.7517206447784033       -0.0059306057187502       -0.2622801402645007
