4
s                      x[A]                      y[A]                      z[A]                      q[e]
N       -2.5980873508506002       -0.0688123591112695        1.0562418800204139        0.9911915254193147
O       -2.5888587274688577       -0.0526884243250068        1.0208516255074938       -0.9999939803580888
O        1.9845410761742819        0.2437872228849790       -0.0038691095971202       -0.7883738146381021
N        2.0473954557646361        0.0017550451427225       -0.0065825015350725        0.9999999875523023

        RMSE         3.841523348E-01 kcal/mol
         MAE         2.672462384E-01 kcal/mol
     max. AE         2.972689409E+00 kcal/mol

Coordinates in bohr
s                   x[bohr]                   y[bohr]                   z[bohr]                      q[e]
+       -4.9096735431238976       -0.1300365127669519        1.9960078754772690        0.9911915254193147
-       -4.8922339724174080       -0.0995666919561731        1.9291299869376020       -0.9999939803580888
-        3.7502391186907342        0.4606910841385554       -0.0073115574879376       -0.7883738146381021
+        3.8690166819020697        0.0033165546575606       -0.0124391251216927        0.9999999875523023
