5
s                      x[A]                      y[A]                      z[A]                      q[e]
N       -2.4425217239451600       -0.2624236814039435        1.0733592739548963        0.4847258240402878
N       -2.1907196244164009       -0.5423139481468590        0.7321345428269058        0.5079173776243321
O       -2.3107580991691732       -0.3692825951042459        0.8688622053991448       -0.9999999617754358
O        2.0310861565015363        0.2528979869700050       -0.0198451773498885       -0.7898181184892081
N        2.0847511391935845        0.0162956228407830       -0.0170638032939303        0.9999985965754502

        RMSE         2.367047237E-01 kcal/mol
         MAE         1.720421699E-01 kcal/mol
     max. AE         1.557005671E+00 kcal/mol

Coordinates in bohr
s                   x[bohr]                   y[bohr]                   z[bohr]                      q[e]
+       -4.6156971137374621       -0.4959088866878536        2.0283550619950135        0.4847258240402878
+       -4.1398601078128339       -1.0248248360133012        1.3835337729301271        0.5079173776243321
-       -4.3666999496132579       -0.6978429676453585        1.6419116089656696       -0.9999999617754358
-        3.8381965729966803        0.4779079330529119       -0.0375019501024282       -0.7898181184892081
+        3.9396086928120861        0.0307942642128350       -0.0322459148842135        0.9999985965754502
