7
s                      x[A]                      y[A]                      z[A]                      q[e]
N       -2.4736018188910189       -0.2417174452439768        1.0712230864919388        0.5919823842803009
N       -2.2285938773026799       -0.5513533889177757        0.7816476208275256        0.3662293759940451
O       -2.3761139692304862       -0.3257860055978111        0.9248730366343196       -0.9660842323702907
N        1.8740759818920680       -0.2038159957273288       -0.1289472234063379        0.8439782489653946
O        1.8988424911882846       -0.6349174196232579       -0.1015749865857924       -0.1935349486731068
O        1.9543090060951693        0.0669330731205331       -0.0396023548535481       -0.9999999987897230
N        2.1783190072675356       -0.1241921493182502        0.0805120780346750        0.5602528885688060

        RMSE         9.823725838E-02 kcal/mol
         MAE         5.578565883E-02 kcal/mol
     max. AE         1.001957318E+00 kcal/mol

Coordinates in bohr
s                   x[bohr]                   y[bohr]                   z[bohr]                      q[e]
+       -4.6744299811383616       -0.4567797712564651        2.0243182527373875        0.5919823842803009
+       -4.2114320729742314       -1.0419069033976314        1.4770999299797296        0.3662293759940451
-       -4.4902046447201478       -0.6156463260867339        1.7477567400593887       -0.9660842323702907
+        3.5414903440744725       -0.3851564119121343       -0.2436749368762039        0.8439782489653946
-        3.5882922637279275       -1.1998200353703412       -0.1919489058442002       -0.1935349486731068
-        3.6931087860355634        0.1264851769330504       -0.0748376045964015       -0.9999999987897230
+        4.1164263376148229       -0.2346891491434569        0.1521457772770247        0.5602528885688060
