3
s                      x[A]                      y[A]                      z[A]                      q[e]
O        2.1204040302938205        0.1108659356881774       -0.8514076557470014       -0.2840069399371833
N        2.2742671574625954        0.5992122730381116       -1.2330458036106642        0.0392621294707883
N        1.9593122818095789        0.3507073378349544       -0.7838324955145920        0.2690960549011411

        RMSE         1.479323684E-01 kcal/mol
         MAE         9.457061557E-02 kcal/mol
     max. AE         1.369942818E+00 kcal/mol

Coordinates in bohr
s                   x[bohr]                   y[bohr]                   z[bohr]                      q[e]
-        4.0069828925723048        0.2095062550932762       -1.6089272904799132       -0.2840069399371833
+        4.2977420637277790        1.1323470870550889       -2.3301188689692145        0.0392621294707883
+        3.7025636068659518        0.6627408186964779       -1.4812287447567305        0.2690960549011411
