2
s                      x[A]                      y[A]                      z[A]                      q[e]
O        0.0531719054241364        1.4561492597641363       -0.0031401695836380       -0.2622804608984103
O       -0.7965939286555160        1.3979503275881744        0.0382519183399622       -0.3868383430000641

        RMSE         6.687557772E-01 kcal/mol
         MAE         5.123054279E-01 kcal/mol
     max. AE         3.165756065E+00 kcal/mol

Coordinates in bohr
s                   x[bohr]                   y[bohr]                   z[bohr]                      q[e]
-        0.1004803388203634        2.7517232987423661       -0.0059340605005687       -0.2622804608984103
-       -1.5053443583614179        2.6417432561357024        0.0722856494359059       -0.3868383430000641
