4
s                      x[A]                      y[A]                      z[A]                      q[e]
N       -0.0920784207933917        0.9566751476464744        0.0030602814528146        0.7634538417930883
O       -0.5819020180873823        1.1433611255090272        0.4048603156898039       -0.1370217136100335
O       -0.8823932005110100        1.3856737826652554       -0.0751052033450010       -0.2755509326051100
O       -0.0422127311170686        1.1291628059651071       -0.0170499621228087       -0.9999999994764192

        RMSE         1.480899203E-01 kcal/mol
         MAE         9.565452522E-02 kcal/mol
     max. AE         1.015953196E+00 kcal/mol

Coordinates in bohr
s                   x[bohr]                   y[bohr]                   z[bohr]                      q[e]
+       -0.1740029973641716        1.8078540200837678        0.0057830938126377        0.7634538417930883
-       -1.0996354460363600        2.1606393897072755        0.7650751157201263       -0.1370217136100335
-       -1.6674814839320033        2.6185439484645059       -0.1419282649188710       -0.2755509326051100
-       -0.0797705008188511        2.1338084543275313       -0.0322197588615380       -0.9999999994764192
