3
s                      x[A]                      y[A]                      z[A]                      q[e]
O       -2.0212645809823138       -0.5207920655405925        0.1581118194982197       -0.7486459977941310
N       -2.2598382390591532       -0.4801514831202868        0.1385841826476832        0.5746931898868549
N       -1.5027969570104238       -0.1894029871858871       -0.0254890812897423        0.2506071907149546

        RMSE         9.021498728E-02 kcal/mol
         MAE         6.230699222E-02 kcal/mol
     max. AE         6.625435634E-01 kcal/mol

Coordinates in bohr
s                   x[bohr]                   y[bohr]                   z[bohr]                      q[e]
-       -3.8196364851448483       -0.9841543721832032        0.2987880360494581       -0.7486459977941310
+       -4.2704753596586951       -0.9073548018297294        0.2618861505245463        0.5746931898868549
+       -2.8398746709211227       -0.3579197731249252       -0.0481673828271444        0.2506071907149546
