3
s                      x[A]                      y[A]                      z[A]                      q[e]
N       -1.4226345608153006       -1.3932045264935524        0.0637559362819886        0.5909982341972536
N       -1.6983334803000263       -1.6942932443828453        0.0487585850708948        0.3793798721914604
O       -1.5659846218769375       -1.4534882096579831        0.0626608635163011       -0.9999999960082868

        RMSE         4.934740422E-02 kcal/mol
         MAE         3.269541253E-02 kcal/mol
     max. AE         3.784603369E-01 kcal/mol

Coordinates in bohr
s                   x[bohr]                   y[bohr]                   z[bohr]                      q[e]
+       -2.6883896965518970       -2.6327749918209689        0.1204812584450984        0.5909982341972536
+       -3.2093851474626773       -3.2017502080969673        0.0921403720488280        0.3793798721914604
-       -2.9592820520260474       -2.7466946428356156        0.1184118708305014       -0.9999999960082868
