12
s                      x[A]                      y[A]                      z[A]                      q[e]
O        1.5175099542073609        0.0977094533971003       -0.2913379542029564       -0.3219840997322899
N        1.8097816759912015        0.2978709524244516       -1.5294759315751174        0.1298489279589723
N        2.9956865618104160        0.0165515194617138        0.1612882361992488        0.1388929271615953
O        0.9250684163604563        0.0405770090339996        0.3276483996330921       -0.9025460081327862
N        0.5108313575881791        0.0506598394353375        0.1404476667074459        0.8774804629645439
N        1.3311459444630089       -0.2165120688169968        1.5296596062824515        0.1596711979920266
O       -0.8909279559236969       -1.3652903718574174       -0.1483997943293621       -0.2285475102769408
O       -0.1802944642799976        0.4535372324423719        0.1020576134021761       -0.5766989276829019
N       -0.0719566850534538        0.2771964129332893        0.1211811051983771        0.9214821088773516
N       -2.1443626281595356        0.9488092761783442       -0.2951493128062784        0.2968564817078615
O       -1.1359569080894047        1.1227749717013562       -0.0397724130578509       -0.8105718777859017
N       -0.8777130132283731        1.9836594301960158        0.1105032064047850        0.3161163169484691

        RMSE         5.926943124E-01 kcal/mol
         MAE         3.387391953E-01 kcal/mol
     max. AE         6.927502456E+00 kcal/mol

Coordinates in bohr
s                   x[bohr]                   y[bohr]                   z[bohr]                      q[e]
-        2.8676782061079624        0.1846441067887045       -0.5505489433947630       -0.3219840997322899
+        3.4199917144954277        0.5628945208114919       -2.8902906261564487        0.1298489279589723
+        5.6610271595360802        0.0312778387428243        0.3047905936747334        0.1388929271615953
-        1.7481259542322540        0.0766794340644873        0.6191657407511011       -0.9025460081327862
+        0.9653313621374719        0.0957332220924561        0.2654076250366540        0.8774804629645439
+        2.5155012680489830       -0.4091485129204020        2.8906377210494840        0.1596711979920266
-       -1.6836098342097505       -2.5800248845349949       -0.2804349683567640       -0.2285475102769408
-       -0.3407071594253346        0.8570611570141899        0.1928609383479672       -0.5766989276829019
+       -0.1359784276468526        0.5238253034032330        0.2289991004052267        0.9214821088773516
+       -4.0522580808884845        1.7929896772709488       -0.5577513673209491        0.2968564817078615
-       -2.1466474466108449        2.1217371970342267       -0.0751589680279208       -0.8105718777859017
+       -1.6586372117519690        3.7485730492522000        0.2088207960899811        0.3161163169484691
