3
s                      x[A]                      y[A]                      z[A]                      q[e]
O       -2.4445440577547739        0.0474581449536643        0.5803192481979843       -0.0039103203934071
O        1.9388049369543920        0.2469618108345696       -0.0059352175027988       -0.7932656059766259
N        2.0165740602669380        0.0007691682463007       -0.0027120473476537        0.9999999600752711

        RMSE         9.050910161E-01 kcal/mol
         MAE         4.826594888E-01 kcal/mol
     max. AE         6.374352009E+00 kcal/mol

Coordinates in bohr
s                   x[bohr]                   y[bohr]                   z[bohr]                      q[e]
-       -4.6195187707718866        0.0896828963847039        1.0966444444257766       -0.0039103203934071
-        3.6638103415293322        0.4666901859244603       -0.0112159355753135       -0.7932656059766259
+        3.8107726856070014        0.0014535173299071       -0.0051250267263399        0.9999999600752711
