4
s                      x[A]                      y[A]                      z[A]                      q[e]
N       -2.5981749168593997       -0.0688487488168145        1.0562176858681893        0.9911594103693517
O       -2.5889486604692387       -0.0527253827157011        1.0208270044814776       -0.9999607892891333
O        1.9845306957376059        0.2437961373246746       -0.0038565852401992       -0.7883745871629662
N        2.0473883492929374        0.0017617050600874       -0.0065728438271686        0.9999999997879860

        RMSE         3.841524608E-01 kcal/mol
         MAE         2.672459161E-01 kcal/mol
     max. AE         2.972306123E+00 kcal/mol

Coordinates in bohr
s                   x[bohr]                   y[bohr]                   z[bohr]                      q[e]
+       -4.9098390188984284       -0.1301052793442180        1.9959621551557269        0.9911594103693517
-       -4.8924039211577686       -0.0996365331926230        1.9290834599415034       -0.9999607892891333
-        3.7502195025083540        0.4607079299881419       -0.0072878898834595       -0.7883745871629662
+        3.8690032526168414        0.0033291400773983       -0.0124208746987548        0.9999999997879860
