2
s                      x[A]                      y[A]                      z[A]                      q[e]
O       -1.8675789781120409       -0.6181670416005078        0.2283876594136476       -0.9233457539521521
N       -1.9010492391216489       -0.5104020493622531        0.1667324877837179        0.9999999827374039

        RMSE         5.728968496E-01 kcal/mol
         MAE         4.242441148E-01 kcal/mol
     max. AE         3.209173347E+00 kcal/mol

Coordinates in bohr
s                   x[bohr]                   y[bohr]                   z[bohr]                      q[e]
-       -3.5292127862941571       -1.1681664084094558        0.4315901267261344       -0.9233457539521521
+       -3.5924624129499061       -0.9645200871670656        0.3150787381274698        0.9999999827374039
