12
s                      x[A]                      y[A]                      z[A]                      q[e]
N       -2.1546412274534932        0.3418925784700668       -0.1054737438714588        0.4310160421279134
N       -1.6872434673944250       -0.5587320747608657        0.0151799283555793        0.3810712642654736
O       -2.2423765229260639       -0.2950305565412817       -0.2882718594143088       -0.2987329398829006
N       -2.1960147883826746        0.8497100158352432        1.0859762864965141        0.0762587247729704
O       -1.9438526856343732        0.6250423006166900        0.5702966839597942       -0.9921747218819593
N       -1.8931509764205836        0.6432165704996515        0.6362667575827555        0.7464227047167220
O       -2.4616535852150809       -0.7874492814671347        0.0585651280347151       -0.9785534180756000
N       -2.5047645830617951       -0.9642930835642793        0.0260187563677913        0.4621037702334537
N       -2.7064197656935387       -0.7820491051036272        0.0407761846703677        0.3502145403830197
N       -2.1422297106095995        0.4294245555121868       -0.5044505372204591        0.4742859944209675
N       -2.2291017886959126        0.7033666528047895       -0.8889908863421462        0.4677562979819572
O       -2.2096476742271656        0.6144621266283786       -0.7082081182363823       -0.9092393951566220

        RMSE         1.062329275E-01 kcal/mol
         MAE         6.308833163E-02 kcal/mol
     max. AE         1.196793246E+00 kcal/mol

Coordinates in bohr
s                   x[bohr]                   y[bohr]                   z[bohr]                      q[e]
+       -4.0716818185073889        0.6460833376350258       -0.1993164893437432        0.4310160421279134
+       -3.1884280603432980       -1.0558505988068643        0.0286859071961162        0.3810712642654736
-       -4.2374774984866672       -0.5575269505044230       -0.5447548639695255       -0.2987329398829006
+       -4.1498665174984843        1.6057192159870439        2.0521977602201380        0.0762587247729704
-       -3.6733492040846376        1.1811587649916246        1.0777045429407894       -0.9921747218819593
+       -3.5775368595779735        1.2155031576005784        1.2023699145644757        0.7464227047167220
-       -4.6518510918078668       -1.4880634796614391        0.1106720524879837       -0.9785534180756000
+       -4.7333190707333586       -1.8222498326097074        0.0491683236601375        0.4621037702334537
+       -5.1143921376865338       -1.4778586253052393        0.0770558214680869        0.3502145403830197
+       -4.0482274508709226        0.8114948014644948       -0.9532733591867381        0.4742859944209675
+       -4.2123918864034415        1.3291703395810364       -1.6799493032146644        0.4677562979819572
-       -4.1756289380442029        1.1611651337940234       -1.3383193832926181       -0.9092393951566220
