4
s                      x[A]                      y[A]                      z[A]                      q[e]
O       -2.0425126747351268       -0.3741042553152770       -0.4928620741851923       -0.4405778211299489
N       -1.9104891251783342       -0.2107920326655993       -0.1341592209655870        0.9999999998780349
N       -2.0496867410920840        0.5298050653601938        1.0981133901262035        0.1561894517981314
O       -2.0504449439154135        0.1207818160454994        0.5118544166252279       -0.5051827666408217

        RMSE         5.641376020E-01 kcal/mol
         MAE         3.679365845E-01 kcal/mol
     max. AE         3.738304274E+00 kcal/mol

Coordinates in bohr
s                   x[bohr]                   y[bohr]                   z[bohr]                      q[e]
-       -3.8597895630257160       -0.7069545849142246       -0.9313743378350920       -0.4405778211299489
+       -3.6103012122525691       -0.3983392111665429       -0.2535241848297393        0.9999999998780349
+       -3.8733465836462266        1.0011864734110505        2.0751335620365507        0.1561894517981314
-       -3.8747793793298686        0.2282445532614217        0.9672646635276688       -0.5051827666408217
