6
s                      x[A]                      y[A]                      z[A]                      q[e]
O       -2.0201493881369719       -0.5044045715917181       -0.2226630571241523       -0.9983685752737698
N       -1.7667725710266704       -0.4850257162642500       -0.1689689107432307        0.9496197934514512
N       -2.1075939250922127        0.6688649153938692        1.1482100607396759        0.0511834117764229
N       -2.5605162161854462       -0.7671077530957486        0.1303044553299284        0.6381555794282845
O       -2.5228392491679692       -0.7230612552948333        0.3024810872375102       -0.4811141418200637
N       -2.1725627899502258        0.6916171572759408       -1.2415118569121180        0.0509527963430706

        RMSE         2.131314290E-01 kcal/mol
         MAE         1.343461768E-01 kcal/mol
     max. AE         1.923620812E+00 kcal/mol

Coordinates in bohr
s                   x[bohr]                   y[bohr]                   z[bohr]                      q[e]
-       -3.8175290760900817       -0.9531864967372332       -0.4207721962218194       -0.9983685752737698
+       -3.3387162852113952       -0.9165657675434490       -0.3193049650216350        0.9496197934514512
+       -3.9827753021029633        1.2639715050219344        2.1698025492932853        0.0511834117764229
+       -4.8386743883840619       -1.4496235620662894        0.2462397335005182        0.6381555794282845
-       -4.7674752394831224       -1.3663877444369790        0.5716064130096115       -0.4811141418200637
+       -4.1055486633664895        1.3069670109192209       -2.3461173910724904        0.0509527963430706
