1
s                      x[A]                      y[A]                      z[A]                      q[e]
O        2.1330040535691217       -1.0127627222771745       -0.0713157537824283       -0.1521668504890435

        RMSE         2.016310541E+00 kcal/mol
         MAE         1.694828354E+00 kcal/mol
     max. AE         7.097512224E+00 kcal/mol

Coordinates in bohr
s                   x[bohr]                   y[bohr]                   z[bohr]                      q[e]
-        4.0307934857370178       -1.9138441751769673       -0.1347672430793727       -0.1521668504890435
