38
s                      x[A]                      y[A]                      z[A]                      q[e]
N       -2.0328770064338828        0.8043617555293812       -0.0270672020540322        0.8973306875328753
O       -2.0600401223434925        0.8875479520032182        0.1278132030646188       -0.5007899112259425
O       -2.0425284870116749        1.0291440760499422       -0.0927025261128472       -0.8591211514132686
N       -2.0808141764549566        1.2623820017134002       -0.0344040059634393        0.4988141223811728
O       -2.6479809526220466       -0.3129432692120721        0.1768226548952008       -0.9377781645929759
N       -2.6286452206518884       -0.3627604507140960        0.1454499339909766        0.8744346608818799
N       -3.2875479803293932       -0.5338619467744764        0.0956475197156351        0.0865223257691621
N       -1.9250566976768335        0.1171706840750338        0.1964536955405802        0.9882624041103372
O       -1.8834251381628979       -0.2070430286185088       -0.2204007934439406       -0.9842362646950777
N       -1.8995309157301343       -0.4000740832308181       -0.2141575023977348        0.4727678633447052
O       -1.8142494297576994        0.0402695814775511        0.4610455078252328       -0.5252575989837401
O       -1.1153398986249095       -0.3380007147852517        0.3283278954716676       -0.5638366658198097
O       -0.3396667243181777       -0.3376769721807062        0.0626358556816329       -0.2371432874509450
O       -1.0769147105502568       -0.3041824347594392       -0.4182054967900519       -0.3698626879589727
N       -0.8573944180302162       -0.3080153486903527        0.0249971973002918        0.9890099843169365
N       -0.8074350130601265       -1.8252688239498120        0.0138992708102798        0.1278141451508959
O       -0.8334870902048382       -1.3599094889913104        0.2491812805840349       -0.5189698786721917
N       -0.8513700393136044       -1.2626483369847976        0.0331549644438894        0.9892597462939201
O       -0.8207522853252331       -1.3498282089369900       -0.2377255011509822       -0.4305911108919661
N        1.6914817603339953       -1.1623269922612569        0.0273460069520435        0.4844875326590531
O        1.3787437817512243       -0.6402280091988296       -0.0156271542014980       -0.8618018257400455
N        1.1160286805306254       -0.5801965923821425        0.0250931389495974        0.9890806675315383
O        1.4529524034077410       -0.9918763780676528        0.0349203622603238       -0.9890158750360162
O        0.5363874125300744        0.3267281072326838       -0.1691660685595973       -0.9426756151157117
N        0.2117235050524842        0.4610085250898782       -0.0340666766928575        0.7203172386730404
O        0.5645814667858114        0.3916478380223090        0.4309291883500079       -0.3286169980078039
N        0.9766677334583104       -0.1257921836396212       -0.0336621757724491        0.9823667546957835
O        1.7242782084133559        1.3596098875936846       -0.2510444477997472       -0.4578806171190743
O        1.9485330277511059        1.5624118126244035        0.0007405668661805       -0.6792298994014192
N        2.0522402326417764        1.6394087976095457       -0.0000775413599484        0.5395590357976878
N        1.7650473392382746        1.3417123364575121       -0.1477855831774356        0.6369902402795351
O        0.8449687690670047        1.1058296041528008        0.2943362832241606       -0.6328171242143927
N        0.8765674280110639        1.1033090276550597       -0.0481034437472635        0.9879543501403376
O        0.7900623759519545        0.9705699320499902       -0.4281105962317479       -0.5255241841084008
O        0.2784546936103268        1.9411153102184611       -0.1992637813700056       -0.8462549163767881
N        0.1578564596477169        2.0608774134966654       -0.0148321861875889        0.9796466006292139
N        0.3532602267370396        1.8310716549596378       -0.1101105363823198        0.6059744680243262
O        0.2185281318732681        2.0101563997498757        0.1135226515710208       -0.6591890513878582

        RMSE         4.661120721E-01 kcal/mol
         MAE         2.718594646E-01 kcal/mol
     max. AE         4.227880372E+00 kcal/mol

Coordinates in bohr
s                   x[bohr]                   y[bohr]                   z[bohr]                      q[e]
+       -3.8415807889006097        1.5200234237429942       -0.0511495988645504        0.8973306875328753
-       -3.8929116386838380        1.6772225524970721        0.2415319490096567       -0.5007899112259425
-       -3.8598194438978122        1.9448004473717337       -0.1751823854913839       -0.8591211514132686
+       -3.9321689114699465        2.3855562489455613       -0.0650141488895181        0.4988141223811728
-       -5.0039587858845893       -0.5913770716162350        0.3341463905282745       -0.9377781645929759
+       -4.9674195480257310       -0.6855179009972840        0.2748605402088650        0.8744346608818799
+       -6.2125653071245726       -1.0088528682075046        0.1807476168418784        0.0865223257691621
+       -3.6378299345874843        0.2214205028343569        0.3712436809057725        0.9882624041103372
-       -3.5591576889304477       -0.3912546202743089       -0.4164971374426489       -0.9842362646950777
+       -3.5895931975700672       -0.7560304471998665       -0.4046990272437970        0.4727678633447052
-       -3.4284345455100915        0.0760984801793810        0.8712497411623139       -0.5252575989837401
-       -2.1076869451969769       -0.6387287811531102        0.6204498017893971       -0.5638366658198097
-       -0.6418770828927423       -0.6381169962953768        0.1183646128719878       -0.2371432874509450
-       -2.0350738634166752       -0.5748214938702837       -0.7902938530942309       -0.3698626879589727
+       -1.6202406315734099       -0.5820646514621621        0.0472378568015854        0.9890099843169365
+       -1.5258310387891039       -3.4492581826016449        0.0262658151749991        0.1278141451508959
-       -1.5750623295919084       -2.5698564896048839        0.4708843758946882       -0.5189698786721917
+       -1.6088562057229765       -2.3860595496660517        0.0626538024982431        0.9892597462939201
-       -1.5509970361083107       -2.5508056313081777       -0.4492360902125661       -0.4305911108919661
+        3.1964372732385478       -2.1964796836009159        0.0516764637642280        0.4844875326590531
-        2.6054481446878146       -1.2098555952328831       -0.0295310415611289       -0.8618018257400455
+        2.1089885543589513       -1.0964126585261409        0.0474191602427976        0.9890806675315383
-        2.7456821157663498       -1.8743747048589294        0.0659899208737855       -0.9890158750360162
-        1.0136253068248071        0.6174266401589893       -0.3196775392980612       -0.9426756151157117
+        0.4000994388711819        0.8711798539211235       -0.0643766889540181        0.7203172386730404
-        1.0669043477344489        0.7401071514898331        0.8143381454473471       -0.3286169980078039
+        1.8456345318078518       -0.2377127758021809       -0.0636122929969505        0.9823667546957835
-        3.2584135779963366        2.5692903250165671       -0.4744052516583162       -0.4578806171190743
-        3.6821937688587081        2.9525304210402563        0.0013994685546697       -0.6792298994014192
+        3.8781719833388162        3.0980336351481634       -0.0001465319336981        0.5395590357976878
+        3.3354560696283935        2.5354688550528244       -0.2792742774964209        0.6369902402795351
-        1.5967595581018612        2.0897150932722361        0.5562149640788510       -0.6328171242143927
+        1.6564723694378816        2.0849518940132397       -0.0909023343736948        0.9879543501403376
-        1.4930015125776930        1.8341113571786956       -0.8090117782844617       -0.5255241841084008
-        0.5262031092717896        3.6681763142460024       -0.3765539735124165       -0.8462549163767881
+        0.2983054758685700        3.8944938896506041       -0.0280287697363415        0.9796466006292139
+        0.6675650795501397        3.4602239439625295       -0.2080787572898444        0.6059744680243262
-        0.4129583199484083        3.7986450648635897        0.2145267205050042       -0.6591890513878582
