20
s                      x[A]                      y[A]                      z[A]                      q[e]
N        1.7904932969234681        0.3572648892661285       -1.7906375143862909        0.0526950825102239
O        1.4631835118706702        0.1422954544522425       -0.4442871100391563       -0.9885597748377087
N        1.4768891443808065        0.1707511118998818       -0.6188565372031432        0.8347516039532754
N        2.9397406263656394        0.0279629477530159        0.1418016995703272        0.1428479292693098
O        1.3712061365865023        0.3161434382500637        0.3580556544147749       -0.5015823621081519
O        1.1990196826771113       -0.1633996243794496        0.2697265786097715       -0.6408849386074793
N        0.6520037110037160       -0.0062405887670760        0.3836787976579075        0.9617965407763635
N        1.2948278215543427        0.0377077618000101        0.6586874181430190        0.9711819198327376
N        1.1330302501546101       -0.2455620943445493        1.8452873800740486        0.0851768358926358
O        0.9062831059384971        0.0125775153709746        0.7412199763964323       -0.9149536454779096
N       -0.9188835967585179       -0.7537964566092835       -0.0229385985407637        0.2709444923028975
N       -1.2421138940182879       -1.6148360521246405       -0.1733919588948585        0.2538594178215397
O       -1.0593910649219405       -1.1950147436982299       -0.1128182258414794       -0.9988436487456610
N       -0.8762552082298863       -0.2514863432156387       -0.0291123358493874        0.9797582397674143
N       -0.2094168240638745        0.2731954330763162        0.1519764393660152        0.9999742130281267
O       -0.6069033850448614        0.2675047233445718        0.2236556659709670       -0.9657272944373906
O       -0.5432627748122507        0.3026141959434944       -0.2991537529396996       -0.4035052577234577
N       -2.2751271119117078        0.9598763004038260       -0.3240805099987921        0.2323816103106389
O       -1.2263177022444254        1.0267898231133190       -0.0348410012767605       -0.6417843065628560
N       -0.9229331145798352        1.9467241053359352        0.1224091074986392        0.2704733430354516

        RMSE         4.889563224E-01 kcal/mol
         MAE         2.900883083E-01 kcal/mol
     max. AE         4.428278857E+00 kcal/mol

Coordinates in bohr
s                   x[bohr]                   y[bohr]                   z[bohr]                      q[e]
+        3.3835419606533983        0.6751327949550011       -3.3838144921606417        0.0526950825102239
-        2.7650161087211398        0.2688994378122971       -0.8395809590451506       -0.9885597748377087
+        2.7909160005414684        0.3226728371081797       -1.1694693662631439        0.8347516039532754
+        5.5553046637129082        0.0528423129136863        0.2679663763123694        0.1428479292693098
-        2.5912040596956083        0.5974245146532090        0.6766271245154997       -0.5015823621081519
-        2.2658188192930924       -0.3087805390798418        0.5097093623292397       -0.6408849386074793
+        1.2321084465791778       -0.0117930036313821        0.7250478477183956        0.9617965407763635
+        2.4468699623608883        0.0712573426060198        1.2447388225752276        0.9711819198327376
+        2.1411168646511851       -0.4640451051050348        3.4870877711035586        0.0851768358926358
-        1.7126268623530427        0.0237680593898781        1.4007027541075729       -0.9149536454779096
+       -1.7364383390492275       -1.4244688573321012       -0.0433476689438699        0.2709444923028975
+       -2.3472550763205144       -3.0515978760311122       -0.3276633146679240        0.2538594178215397
-       -2.0019589724595810       -2.2582505814738356       -0.2131955488004452       -0.9988436487456610
+       -1.6558823595605054       -0.4752403129704464       -0.0550143416276898        0.9797582397674143
+       -0.3957404435439092        0.5162645472400803        0.2871938479240164        0.9999742130281267
-       -1.1468811823480665        0.5055106643876058        0.4226479550920058       -0.9657272944373906
-       -1.0266178585514232        0.5718579520088356       -0.5653186624589069       -0.4035052577234577
+       -4.2993671421169699        1.8139033220809164       -0.6124234064964144        0.2323816103106389
-       -2.3174046000427047        1.9403515540914611       -0.0658399503498039       -0.6417843065628560
+       -1.7440908186716777        3.6787754009118339        0.2313196884341542        0.2704733430354516
