6
s                      x[A]                      y[A]                      z[A]                      q[e]
N        1.6715551874035777        0.2925777875902460       -1.5938658238831924        0.1087332123124928
O        1.8144852408144487       -0.1023833037795983       -1.4194165066879068       -0.0325214912021147
N        1.7947152089661460        0.0378663482561264       -0.6896402302825578        0.1649445933514553
O        1.7445241250948804        0.0242119737800131        0.0691580889183509       -0.9094553969157368
N        1.9458128731443192        0.0020184332974818        0.2181318261532773        0.6339886374841244
N        3.3592839250138762        0.0509566927996365        0.1070488121115899        0.0612203762981033

        RMSE         1.457442614E-01 kcal/mol
         MAE         8.750733832E-02 kcal/mol
     max. AE         1.281332775E+00 kcal/mol

Coordinates in bohr
s                   x[bohr]                   y[bohr]                   z[bohr]                      q[e]
+        3.1587815077810966        0.5528918889379391       -3.0119698878664343        0.1087332123124928
-        3.4288801638247026       -0.1934764039629921       -2.6823084555942236       -0.0325214912021147
+        3.3915202181398314        0.0715570275752864       -1.3032311603317024        0.1649445933514553
-        3.2966728156832561        0.0457539994009907        0.1306898474157432       -0.9094553969157368
+        3.6770534216329787        0.0038142861347454        0.4122094106756733        0.6339886374841244
+        6.3481265959292372        0.0962941936504019        0.2022929369464977        0.0612203762981033
