7
s                      x[A]                      y[A]                      z[A]                      q[e]
O        1.8401152733443253       -0.0201765179106318       -1.1549872047795167       -0.0576847628443203
O        1.6759151992923165        0.1833790077598300        0.0272476828179852       -0.5627158386977212
N        1.6946958596831427        0.2390107488893512       -1.3362896222620999        0.2073690129597421
N        3.2606141295765227       -0.0282752877947012        0.1258069480279538        0.0710436018113708
O        1.7494957700080933       -0.2187315083821513        0.0107946500377174       -0.0817616435274970
N        2.0396147821224639        0.1768560316527389        0.1462240114801613        0.7632650223472784
O        2.1640422716039303        0.2450781204583271        0.1649790524705040       -0.3126054607205285

        RMSE         1.959755773E-01 kcal/mol
         MAE         1.226117249E-01 kcal/mol
     max. AE         1.762415973E+00 kcal/mol

Coordinates in bohr
s                   x[bohr]                   y[bohr]                   z[bohr]                      q[e]
-        3.4773139058927445       -0.0381280930164887       -2.1826094954413633       -0.0576847628443203
-        3.1670207361545533        0.3465361018242846        0.0514906580793350       -0.5627158386977212
+        3.2025110407484485        0.4516648564414476       -2.5252214103668629        0.2073690129597421
+        6.1616677056976910       -0.0534325500504857        0.2377406764525395        0.0710436018113708
-        3.3060678629622537       -0.4133426458505493        0.0203989321914489       -0.0817616435274970
+        3.8543133396467963        0.3342094634589774        0.2763233346633062        0.7632650223472784
-        4.0894472172450520        0.4631305270082015        0.3117652256067892       -0.3126054607205285
