8
s                      x[A]                      y[A]                      z[A]                      q[e]
N        2.4605052370038458        0.0771958602877293       -0.5712140472192303        0.0179330501809276
N        1.6904690278734555        0.2996672662596547       -1.6710418550108577        0.0813539947815707
N        1.9323825688999050        0.0951191825838825        0.2301027354522967        0.3467890300117555
N        1.5189832217740575        0.2761772704706838       -0.6729822060479882        0.1259274282255871
N        2.2499940507631191       -0.0246600580508637        0.1178560422878546        0.0316370739950157
O        1.6294454870159365        0.0373768904020893        0.0118630222490052       -0.4897653831154161
O        1.6544259776443910        0.3565128922346865        0.0882643096504217       -0.1451521793126922
N        3.3536203645184197        0.0017812359880326        0.1189776018244360        0.0581869165615759

        RMSE         1.418509036E-01 kcal/mol
         MAE         8.703492739E-02 kcal/mol
     max. AE         1.199636796E+00 kcal/mol

Coordinates in bohr
s                   x[bohr]                   y[bohr]                   z[bohr]                      q[e]
+        4.6496810281919725        0.1458790339629145       -1.0794381082586810        0.0179330501809276
+        3.1945234862497665        0.5662890619953966       -3.1578114501475301        0.0813539947815707
+        3.6516738248294622        0.1797492043609561        0.4348311507235163        0.3467890300117555
+        2.8704622783185387        0.5218994032660840       -1.2717520567371265        0.1259274282255871
+        4.2518725398517532       -0.0466007559540238        0.2227156421544214        0.0316370739950157
-        3.0792057068233696        0.0706320862812021        0.0224178630708326       -0.4897653831154161
-        3.1264119925907146        0.6737117265184183        0.1667953718919014       -0.1451521793126922
+        6.3374240176978622        0.0033660481821910        0.2248350825119558        0.0581869165615759
