2
s                      x[A]                      y[A]                      z[A]                      q[e]
O       -1.2148238039940229        2.0990105398153713        0.3795210218916917       -0.1773969274428607
N       -0.9189398548800494        2.2469563271006900        0.3119153504942398        0.2034317588936277

        RMSE         4.720284469E-01 kcal/mol
         MAE         3.568582145E-01 kcal/mol
     max. AE         2.235328567E+00 kcal/mol

Coordinates in bohr
s                   x[bohr]                   y[bohr]                   z[bohr]                      q[e]
-       -2.2956842802355650        3.9665550547004460        0.7171907902291821       -0.1773969274428607
+       -1.7365446514912546        4.2461320740849393        0.5894345867603002        0.2034317588936277
