2
s                      x[A]                      y[A]                      z[A]                      q[e]
N       -1.5150952022518527        1.0508470166966553       -0.0239456986732358        0.8447091576488349
O       -1.2490156561186119        0.8331606770357247        0.0010722222136466       -0.9999999418952853

        RMSE         9.404255525E-01 kcal/mol
         MAE         7.017498759E-01 kcal/mol
     max. AE         5.939456312E+00 kcal/mol

Coordinates in bohr
s                   x[bohr]                   y[bohr]                   z[bohr]                      q[e]
+       -2.8631149862511380        1.9858130613110880       -0.0452508123751546        0.8447091576488349
-       -2.3602975164731914        1.5744454980985410        0.0020262063294242       -0.9999999418952853
